@<TRIPOS>MOLECULE
acetone
10 9 1 0 0 
SMALL
USER_CHARGES

@<TRIPOS>ATOM
1       C1           0.981    -0.064     0.071 C.3        1 ****       -0.1400 
2       C2           2.486    -0.051     0.052 C.2        1 ****        0.2460 
3       C3           3.220    -0.776     1.149 C.3        1 ****       -0.1400 
4       O4           3.102     0.536    -0.838 O.2        1 ****       -0.3630 
5       H5           0.601    -0.628     0.925 H          1 ****        0.0510 
6       H6           0.615    -0.532    -0.846 H          1 ****        0.0740 
7       H7           0.615     0.964     0.141 H          1 ****        0.0740 
8       H8           2.524    -1.239     1.852 H          1 ****        0.0510 
9       H9           3.842    -0.063     1.696 H          1 ****        0.0740 
10      H10          3.842    -1.559     0.709 H          1 ****        0.0740 
@<TRIPOS>BOND
1     1    2     1
2     1    5     1
3     1    6     1
4     1    7     1
5     2    3     1
6     2    4     2
7     3    8     1
8     3    9     1
9     3    10    1
@<TRIPOS>SUBSTRUCTURE
     1 ****        1 GROUP             0       ****    0 ROOT
