@<TRIPOS>MOLECULE
JAN-GHE-5a013bed-3
34   36    1
SMALL
USER_CHARGES


@<TRIPOS>ATOM
      1 O          -3.8727   -5.2583    0.0120 O.2       1 UNL        -0.2738 
      2 C          -4.1548   -4.0637    0.0223 C.2       1 UNL         0.2355 
      3 C          -5.5457   -3.5023    0.0401 C.3       1 UNL         0.0507 
      4 C          -6.2614   -3.9785    1.2693 C.ar      1 UNL        -0.0372 
      5 C          -7.5754   -3.5914    1.5145 C.ar      1 UNL        -0.0580 
      6 C          -8.2375   -4.0352    2.6569 C.ar      1 UNL        -0.0601 
      7 C          -7.5914   -4.8701    3.5642 C.ar      1 UNL        -0.0434 
      8 C          -6.2782   -5.2575    3.3199 C.ar      1 UNL         0.0412 
      9 Cl         -5.4654   -6.2923    4.4365 Cl        1 UNL        -0.0835 
     10 C          -5.6173   -4.8134    2.1780 C.ar      1 UNL        -0.0397 
     11 N          -3.2317   -3.1015    0.0188 N.am      1 UNL        -0.2187 
     12 N          -1.8267   -3.3068    0.0031 N.pl3     1 UNL        -0.2125 
     13 C          -1.3569   -4.5912   -0.0097 C.ar      1 UNL         0.1179 
     14 N          -0.0916   -4.8339   -0.0241 N.2       1 UNL        -0.2354 
     15 C           0.8235   -3.7621   -0.0269 C.ar      1 UNL         0.0779 
     16 C           2.1854   -4.0373   -0.0425 C.ar      1 UNL        -0.0355 
     17 C           3.1088   -2.9923   -0.0455 C.ar      1 UNL        -0.0597 
     18 C           2.6808   -1.6659   -0.0329 C.ar      1 UNL        -0.0609 
     19 C           1.3177   -1.3809   -0.0171 C.ar      1 UNL        -0.0473 
     20 C           0.3962   -2.4303   -0.0142 C.ar      1 UNL         0.0664 
     21 C          -1.0963   -2.1661    0.0028 C.ar      1 UNL         0.2787 
     22 O          -1.6418   -1.0621    0.0152 O.2       1 UNL        -0.2653 
     23 H          -6.0840   -3.8373   -0.8466 H         1 UNL         0.0407 
     24 H          -5.4979   -2.4134    0.0463 H         1 UNL         0.0407 
     25 H          -8.0852   -2.9425    0.8143 H         1 UNL         0.0620 
     26 H          -9.2588   -3.7303    2.8410 H         1 UNL         0.0618 
     27 H          -8.1038   -5.2153    4.4509 H         1 UNL         0.0632 
     28 H          -4.5969   -5.1202    1.9973 H         1 UNL         0.0635 
     29 H          -3.4190   -2.1091    0.0269 H         1 UNL         0.1758 
     30 H          -2.0933   -5.3940   -0.0071 H         1 UNL         0.1046 
     31 H           2.5292   -5.0617   -0.0524 H         1 UNL         0.0639 
     32 H           4.1668   -3.2154   -0.0577 H         1 UNL         0.0618 
     33 H           3.4036   -0.8607   -0.0353 H         1 UNL         0.0618 
     34 H           0.9868   -0.3497   -0.0073 H         1 UNL         0.0626 
@<TRIPOS>BOND
     1    1    2 2    
     2    2   11 am   BACKBONE|DICT|INTERRES
     3    2    3 1    
     4    3   24 1    
     5    3    4 1    
     6    3   23 1    
     7    4    5 ar   
     8    4   10 ar   
     9    5   25 1    
    10    5    6 ar   
    11    6   26 1    
    12    6    7 ar   
    13    7    8 ar   
    14    7   27 1    
    15    8   10 ar   
    16    8    9 1    
    17   10   28 1    
    18   11   12 1    
    19   11   29 1    
    20   12   21 ar   
    21   12   13 ar   
    22   13   14 ar   
    23   13   30 1    
    24   14   15 ar   
    25   15   16 ar   
    26   15   20 ar   
    27   16   17 ar   
    28   16   31 1    
    29   17   32 1    
    30   17   18 ar   
    31   18   33 1    
    32   18   19 ar   
    33   19   34 1    
    34   19   20 ar   
    35   20   21 ar   
    36   21   22 2    
@<TRIPOS>SUBSTRUCTURE
     1 UNL         1 GROUP             0       ****    0 ROOT    
@<TRIPOS>MOLECULE
JIN-POS-6dc588a4-9
32   34    1
SMALL
USER_CHARGES


@<TRIPOS>ATOM
      1 O          -3.8727   -5.2583    0.0120 O.2       1 UNL        -0.2751 
      2 C          -4.1548   -4.0637    0.0223 C.2       1 UNL         0.2216 
      3 C          -5.5457   -3.5023    0.0401 C.3       1 UNL         0.0495 
      4 C          -6.2614   -3.9785    1.2693 C.ar      1 UNL        -0.0372 
      5 C          -7.5754   -3.5914    1.5145 C.ar      1 UNL        -0.0580 
      6 C          -8.2375   -4.0352    2.6569 C.ar      1 UNL        -0.0601 
      7 C          -7.5914   -4.8701    3.5642 C.ar      1 UNL        -0.0434 
      8 C          -6.2782   -5.2575    3.3199 C.ar      1 UNL         0.0412 
      9 Cl         -5.4654   -6.2923    4.4365 Cl        1 UNL        -0.0835 
     10 C          -5.6173   -4.8134    2.1780 C.ar      1 UNL        -0.0397 
     11 N          -3.2317   -3.1015    0.0188 N.am      1 UNL        -0.2823 
     12 C          -1.7872   -3.3125    0.0027 C.ar      1 UNL         0.0791 
     13 C          -1.1351   -4.5451   -0.0116 C.ar      1 UNL         0.0716 
     14 N           0.1795   -4.4407   -0.0245 N.2       1 UNL        -0.1729 
     15 N           0.4285   -3.1030   -0.0187 N.pl3     1 UNL        -0.2380 
     16 C           1.6729   -2.5362   -0.0279 C.ar      1 UNL         0.0298 
     17 C           1.7921   -1.1475   -0.0205 C.ar      1 UNL        -0.0435 
     18 C           0.6446   -0.3593   -0.0039 C.ar      1 UNL        -0.0583 
     19 C          -0.6264   -0.9423    0.0055 C.ar      1 UNL        -0.0344 
     20 C          -0.7527   -2.3437   -0.0019 C.ar      1 UNL         0.0880 
     21 H          -6.0840   -3.8373   -0.8466 H         1 UNL         0.0407 
     22 H          -5.4979   -2.4134    0.0463 H         1 UNL         0.0407 
     23 H          -8.0852   -2.9425    0.8143 H         1 UNL         0.0620 
     24 H          -9.2588   -3.7303    2.8410 H         1 UNL         0.0618 
     25 H          -8.1038   -5.2153    4.4509 H         1 UNL         0.0632 
     26 H          -4.5969   -5.1202    1.9973 H         1 UNL         0.0635 
     27 H          -3.4190   -2.1091    0.0269 H         1 UNL         0.1549 
     28 H          -1.6279   -5.5124   -0.0126 H         1 UNL         0.0867 
     29 H           2.5118   -3.2160   -0.0408 H         1 UNL         0.0830 
     30 H           2.7702   -0.6822   -0.0277 H         1 UNL         0.0633 
     31 H           0.7409    0.7196    0.0019 H         1 UNL         0.0619 
     32 H          -1.5088   -0.3176    0.0185 H         1 UNL         0.0639 
@<TRIPOS>BOND
     1    1    2 2    
     2    2   11 am   BACKBONE|DICT|INTERRES
     3    2    3 1    
     4    3   22 1    
     5    3    4 1    
     6    3   21 1    
     7    4    5 ar   
     8    4   10 ar   
     9    5   23 1    
    10    5    6 ar   
    11    6   24 1    
    12    6    7 ar   
    13    7    8 ar   
    14    7   25 1    
    15    8   10 ar   
    16    8    9 1    
    17   10   26 1    
    18   11   12 1    
    19   11   27 1    
    20   12   20 ar   
    21   12   13 ar   
    22   13   14 ar   
    23   13   28 1    
    24   14   15 ar   
    25   15   16 ar   
    26   15   20 ar   
    27   16   29 1    
    28   16   17 ar   
    29   17   30 1    
    30   17   18 ar   
    31   18   31 1    
    32   18   19 ar   
    33   19   20 ar   
    34   19   32 1    
@<TRIPOS>SUBSTRUCTURE
     1 UNL         1 GROUP             0       ****    0 ROOT    
@<TRIPOS>MOLECULE
MAT-POS-f7918075-8
31   33    1
SMALL
USER_CHARGES


@<TRIPOS>ATOM
      1 O          -3.8727   -5.2583    0.0120 O.2       1 UNL        -0.2751 
      2 C          -4.1548   -4.0637    0.0223 C.2       1 UNL         0.2216 
      3 C          -5.5457   -3.5023    0.0401 C.3       1 UNL         0.0495 
      4 C          -6.2614   -3.9785    1.2693 C.ar      1 UNL        -0.0372 
      5 C          -7.5754   -3.5914    1.5145 C.ar      1 UNL        -0.0580 
      6 C          -8.2375   -4.0352    2.6569 C.ar      1 UNL        -0.0601 
      7 C          -7.5914   -4.8701    3.5642 C.ar      1 UNL        -0.0434 
      8 C          -6.2782   -5.2575    3.3199 C.ar      1 UNL         0.0412 
      9 Cl         -5.4654   -6.2923    4.4365 Cl        1 UNL        -0.0835 
     10 C          -5.6173   -4.8134    2.1780 C.ar      1 UNL        -0.0397 
     11 N          -3.2317   -3.1015    0.0188 N.am      1 UNL        -0.2823 
     12 C          -1.7872   -3.3125    0.0027 C.ar      1 UNL         0.0774 
     13 C          -1.2316   -4.5957   -0.0110 C.ar      1 UNL         0.0509 
     14 N           0.1048   -4.8518   -0.0263 N.ar      1 UNL        -0.2592 
     15 C           0.9786   -3.8041   -0.0287 C.ar      1 UNL         0.0551 
     16 C           0.5310   -2.4747   -0.0158 C.ar      1 UNL         0.1086 
     17 N           1.2209   -1.2852   -0.0155 N.2       1 UNL        -0.2344 
     18 C           0.2849   -0.3660   -0.0002 C.ar      1 UNL         0.0945 
     19 N          -0.9879   -0.8869    0.0096 N.pl3     1 UNL        -0.3429 
     20 C          -0.8703   -2.2569   -0.0001 C.ar      1 UNL         0.0905 
     21 H          -6.0840   -3.8373   -0.8466 H         1 UNL         0.0407 
     22 H          -5.4979   -2.4134    0.0463 H         1 UNL         0.0407 
     23 H          -8.0852   -2.9425    0.8143 H         1 UNL         0.0620 
     24 H          -9.2588   -3.7303    2.8410 H         1 UNL         0.0618 
     25 H          -8.1038   -5.2153    4.4509 H         1 UNL         0.0632 
     26 H          -4.5969   -5.1202    1.9973 H         1 UNL         0.0635 
     27 H          -3.4190   -2.1091    0.0269 H         1 UNL         0.1549 
     28 H          -1.8847   -5.4613   -0.0097 H         1 UNL         0.0849 
     29 H           2.0368   -4.0262   -0.0409 H         1 UNL         0.0852 
     30 H           0.4325    0.7106    0.0050 H         1 UNL         0.1027 
     31 H          -1.8272   -0.3160    0.0218 H         1 UNL         0.1669 
@<TRIPOS>BOND
     1    1    2 2    
     2    2   11 am   BACKBONE|DICT|INTERRES
     3    2    3 1    
     4    3   22 1    
     5    3    4 1    
     6    3   21 1    
     7    4    5 ar   
     8    4   10 ar   
     9    5   23 1    
    10    5    6 ar   
    11    6   24 1    
    12    6    7 ar   
    13    7    8 ar   
    14    7   25 1    
    15    8   10 ar   
    16    8    9 1    
    17   10   26 1    
    18   11   12 1    
    19   11   27 1    
    20   12   20 ar   
    21   12   13 ar   
    22   13   14 ar   
    23   13   28 1    
    24   14   15 ar   
    25   15   29 1    
    26   15   16 ar   
    27   16   17 ar   
    28   16   20 ar   
    29   17   18 ar   
    30   18   30 1    
    31   18   19 ar   
    32   19   20 ar   
    33   19   31 1    
@<TRIPOS>SUBSTRUCTURE
     1 UNL         1 GROUP             0       ****    0 ROOT    
@<TRIPOS>MOLECULE
EDJ-MED-50fe53e8-1
33   35    1
SMALL
USER_CHARGES


@<TRIPOS>ATOM
      1 O          -3.8727   -5.2584    0.0120 O.2       1 UNL        -0.2751 
      2 C          -4.1548   -4.0638    0.0223 C.2       1 UNL         0.2226 
      3 C          -5.5457   -3.5023    0.0400 C.3       1 UNL         0.0495 
      4 C          -6.2614   -3.9785    1.2693 C.ar      1 UNL        -0.0372 
      5 C          -7.5754   -3.5914    1.5145 C.ar      1 UNL        -0.0580 
      6 C          -8.2375   -4.0352    2.6569 C.ar      1 UNL        -0.0601 
      7 C          -7.5914   -4.8701    3.5642 C.ar      1 UNL        -0.0434 
      8 C          -6.2782   -5.2575    3.3199 C.ar      1 UNL         0.0412 
      9 Cl         -5.4654   -6.2923    4.4365 Cl        1 UNL        -0.0835 
     10 C          -5.6173   -4.8135    2.1780 C.ar      1 UNL        -0.0397 
     11 N          -3.2318   -3.1016    0.0188 N.am      1 UNL        -0.2682 
     12 C          -1.7872   -3.3126    0.0027 C.ar      1 UNL         0.1552 
     13 N          -1.3573   -4.6017   -0.0098 N.ar      1 UNL        -0.1334 
     14 N          -0.0409   -4.8645   -0.0249 N.ar      1 UNL        -0.1553 
     15 C           0.8511   -3.8393   -0.0277 C.ar      1 UNL         0.0578 
     16 C           0.4768   -2.4750   -0.0154 C.ar      1 UNL         0.0053 
     17 C           1.3946   -1.3991   -0.0181 C.ar      1 UNL        -0.0524 
     18 C           0.9387   -0.0824   -0.0052 C.ar      1 UNL        -0.0611 
     19 C          -0.4252    0.1898    0.0105 C.ar      1 UNL        -0.0611 
     20 C          -1.3519   -0.8509    0.0135 C.ar      1 UNL        -0.0506 
     21 C          -0.9176   -2.1966    0.0007 C.ar      1 UNL         0.0255 
     22 H          -6.0840   -3.8373   -0.8466 H         1 UNL         0.0407 
     23 H          -5.4979   -2.4134    0.0463 H         1 UNL         0.0407 
     24 H          -8.0852   -2.9425    0.8143 H         1 UNL         0.0620 
     25 H          -9.2588   -3.7303    2.8410 H         1 UNL         0.0618 
     26 H          -8.1038   -5.2152    4.4509 H         1 UNL         0.0632 
     27 H          -4.5969   -5.1202    1.9973 H         1 UNL         0.0635 
     28 H          -3.4190   -2.1091    0.0269 H         1 UNL         0.1563 
     29 H           1.8991   -4.1058   -0.0401 H         1 UNL         0.0854 
     30 H           2.4560   -1.6078   -0.0303 H         1 UNL         0.0624 
     31 H           1.6476    0.7356   -0.0074 H         1 UNL         0.0618 
     32 H          -0.7657    1.2173    0.0203 H         1 UNL         0.0618 
     33 H          -2.4120   -0.6360    0.0257 H         1 UNL         0.0625 
@<TRIPOS>BOND
     1    1    2 2    
     2    2   11 am   BACKBONE|DICT|INTERRES
     3    2    3 1    
     4    3   23 1    
     5    3    4 1    
     6    3   22 1    
     7    4   10 ar   
     8    4    5 ar   
     9    5   24 1    
    10    5    6 ar   
    11    6    7 ar   
    12    6   25 1    
    13    7    8 ar   
    14    7   26 1    
    15    8   10 ar   
    16    8    9 1    
    17   10   27 1    
    18   11   28 1    
    19   11   12 1    
    20   12   21 ar   
    21   12   13 ar   
    22   13   14 ar   
    23   14   15 ar   
    24   15   16 ar   
    25   15   29 1    
    26   16   17 ar   
    27   16   21 ar   
    28   17   18 ar   
    29   17   30 1    
    30   18   31 1    
    31   18   19 ar   
    32   19   32 1    
    33   19   20 ar   
    34   20   33 1    
    35   20   21 ar   
@<TRIPOS>SUBSTRUCTURE
     1 UNL         1 GROUP             0       ****    0 ROOT    
@<TRIPOS>MOLECULE
RUB-POS-1325a9ea-13
31   33    1
SMALL
USER_CHARGES


@<TRIPOS>ATOM
      1 O          -3.8727   -5.2583    0.0120 O.2       1 UNL        -0.2751 
      2 C          -4.1548   -4.0637    0.0223 C.2       1 UNL         0.2216 
      3 C          -5.5457   -3.5023    0.0401 C.3       1 UNL         0.0495 
      4 C          -6.2614   -3.9785    1.2693 C.ar      1 UNL        -0.0372 
      5 C          -7.5754   -3.5914    1.5145 C.ar      1 UNL        -0.0580 
      6 C          -8.2375   -4.0352    2.6569 C.ar      1 UNL        -0.0601 
      7 C          -7.5914   -4.8701    3.5642 C.ar      1 UNL        -0.0434 
      8 C          -6.2782   -5.2575    3.3199 C.ar      1 UNL         0.0412 
      9 Cl         -5.4654   -6.2923    4.4365 Cl        1 UNL        -0.0835 
     10 C          -5.6173   -4.8134    2.1780 C.ar      1 UNL        -0.0397 
     11 N          -3.2317   -3.1015    0.0188 N.am      1 UNL        -0.2834 
     12 C          -1.7872   -3.3125    0.0027 C.ar      1 UNL         0.0625 
     13 C          -1.2448   -4.5992   -0.0109 C.ar      1 UNL         0.0495 
     14 N           0.0898   -4.8528   -0.0261 N.ar      1 UNL        -0.2593 
     15 C           0.9697   -3.8147   -0.0287 C.ar      1 UNL         0.0530 
     16 C           0.5011   -2.4969   -0.0157 C.ar      1 UNL         0.0855 
     17 N           1.1174   -1.2596   -0.0143 N.pl3     1 UNL        -0.2754 
     18 N           0.2150   -0.2548    0.0012 N.2       1 UNL        -0.1811 
     19 C          -0.9740   -0.8074    0.0099 C.ar      1 UNL         0.0588 
     20 C          -0.8893   -2.2322    0.0002 C.ar      1 UNL         0.0436 
     21 H          -6.0840   -3.8373   -0.8466 H         1 UNL         0.0407 
     22 H          -5.4979   -2.4134    0.0463 H         1 UNL         0.0407 
     23 H          -8.0852   -2.9425    0.8143 H         1 UNL         0.0620 
     24 H          -9.2588   -3.7303    2.8410 H         1 UNL         0.0618 
     25 H          -8.1038   -5.2153    4.4509 H         1 UNL         0.0632 
     26 H          -4.5969   -5.1202    1.9973 H         1 UNL         0.0635 
     27 H          -3.4190   -2.1091    0.0269 H         1 UNL         0.1549 
     28 H          -1.9000   -5.4626   -0.0095 H         1 UNL         0.0849 
     29 H           2.0268   -4.0468   -0.0410 H         1 UNL         0.0851 
     30 H           2.1177   -1.0689   -0.0234 H         1 UNL         0.1890 
     31 H          -1.8737   -0.2060    0.0229 H         1 UNL         0.0854 
@<TRIPOS>BOND
     1    1    2 2    
     2    2   11 am   BACKBONE|DICT|INTERRES
     3    2    3 1    
     4    3   22 1    
     5    3    4 1    
     6    3   21 1    
     7    4    5 ar   
     8    4   10 ar   
     9    5   23 1    
    10    5    6 ar   
    11    6   24 1    
    12    6    7 ar   
    13    7    8 ar   
    14    7   25 1    
    15    8   10 ar   
    16    8    9 1    
    17   10   26 1    
    18   11   12 1    
    19   11   27 1    
    20   12   20 ar   
    21   12   13 ar   
    22   13   14 ar   
    23   13   28 1    
    24   14   15 ar   
    25   15   29 1    
    26   15   16 ar   
    27   16   17 ar   
    28   16   20 ar   
    29   17   30 1    
    30   17   18 ar   
    31   18   19 ar   
    32   19   20 ar   
    33   19   31 1    
@<TRIPOS>SUBSTRUCTURE
     1 UNL         1 GROUP             0       ****    0 ROOT    
@<TRIPOS>MOLECULE
PET-UNK-b1ef24dc-1
30   32    1
SMALL
USER_CHARGES


@<TRIPOS>ATOM
      1 O          -3.8727   -5.2583    0.0120 O.2       1 UNL        -0.2751 
      2 C          -4.1548   -4.0637    0.0223 C.2       1 UNL         0.2216 
      3 C          -5.5457   -3.5023    0.0401 C.3       1 UNL         0.0495 
      4 C          -6.2614   -3.9785    1.2693 C.ar      1 UNL        -0.0372 
      5 C          -7.5754   -3.5914    1.5145 C.ar      1 UNL        -0.0580 
      6 C          -8.2375   -4.0352    2.6569 C.ar      1 UNL        -0.0601 
      7 C          -7.5914   -4.8701    3.5642 C.ar      1 UNL        -0.0434 
      8 C          -6.2782   -5.2575    3.3199 C.ar      1 UNL         0.0412 
      9 Cl         -5.4654   -6.2923    4.4365 Cl        1 UNL        -0.0835 
     10 C          -5.6173   -4.8134    2.1780 C.ar      1 UNL        -0.0397 
     11 N          -3.2317   -3.1015    0.0188 N.am      1 UNL        -0.2810 
     12 C          -1.7872   -3.3125    0.0027 C.ar      1 UNL         0.0978 
     13 C          -1.2193   -4.5871   -0.0110 C.ar      1 UNL         0.0525 
     14 N           0.1241   -4.8105   -0.0262 N.ar      1 UNL        -0.2605 
     15 C           0.9821   -3.7515   -0.0284 C.ar      1 UNL         0.0400 
     16 C           0.5061   -2.4334   -0.0153 C.ar      1 UNL         0.0610 
     17 C           1.0217   -1.1038   -0.0124 C.2       1 UNL         0.0793 
     18 N           0.0527   -0.2096    0.0031 N.2       1 UNL        -0.0854 
     19 O          -1.1625   -0.9122    0.0112 O.3       1 UNL        -0.3527 
     20 C          -0.8812   -2.2475    0.0000 C.ar      1 UNL         0.1912 
     21 H          -6.0840   -3.8373   -0.8466 H         1 UNL         0.0407 
     22 H          -5.4979   -2.4134    0.0463 H         1 UNL         0.0407 
     23 H          -8.0852   -2.9425    0.8143 H         1 UNL         0.0620 
     24 H          -9.2588   -3.7303    2.8410 H         1 UNL         0.0618 
     25 H          -8.1038   -5.2153    4.4509 H         1 UNL         0.0632 
     26 H          -4.5969   -5.1202    1.9973 H         1 UNL         0.0635 
     27 H          -3.4190   -2.1091    0.0269 H         1 UNL         0.1550 
     28 H          -1.8569   -5.4643   -0.0100 H         1 UNL         0.0850 
     29 H           2.0444   -3.9646   -0.0406 H         1 UNL         0.0837 
     30 H           2.0600   -0.7995   -0.0211 H         1 UNL         0.0870 
@<TRIPOS>BOND
     1    1    2 2    
     2    2   11 am   BACKBONE|DICT|INTERRES
     3    2    3 1    
     4    3   22 1    
     5    3    4 1    
     6    3   21 1    
     7    4    5 ar   
     8    4   10 ar   
     9    5   23 1    
    10    5    6 ar   
    11    6   24 1    
    12    6    7 ar   
    13    7    8 ar   
    14    7   25 1    
    15    8   10 ar   
    16    8    9 1    
    17   10   26 1    
    18   11   12 1    
    19   11   27 1    
    20   12   20 ar   
    21   12   13 ar   
    22   13   14 ar   
    23   13   28 1    
    24   14   15 ar   
    25   15   29 1    
    26   15   16 ar   
    27   16   17 1    
    28   16   20 ar   
    29   17   30 1    
    30   17   18 2    
    31   18   19 1    
    32   19   20 1    
@<TRIPOS>SUBSTRUCTURE
     1 UNL         1 GROUP             0       ****    0 ROOT    
@<TRIPOS>MOLECULE
JAN-GHE-5a013bed-11
24   25    1
SMALL
USER_CHARGES


@<TRIPOS>ATOM
      1 O          -3.8727   -5.2583    0.0120 O.2       1 UNL        -0.2750 
      2 C          -4.1548   -4.0637    0.0223 C.2       1 UNL         0.2237 
      3 C          -5.5457   -3.5023    0.0401 C.3       1 UNL         0.0495 
      4 C          -6.2614   -3.9785    1.2693 C.ar      1 UNL        -0.0372 
      5 C          -7.5754   -3.5914    1.5145 C.ar      1 UNL        -0.0580 
      6 C          -8.2375   -4.0352    2.6569 C.ar      1 UNL        -0.0601 
      7 C          -7.5914   -4.8701    3.5642 C.ar      1 UNL        -0.0434 
      8 C          -6.2782   -5.2575    3.3199 C.ar      1 UNL         0.0412 
      9 Cl         -5.4654   -6.2923    4.4365 Cl        1 UNL        -0.0835 
     10 C          -5.6173   -4.8134    2.1780 C.ar      1 UNL        -0.0397 
     11 N          -3.2317   -3.1015    0.0188 N.am      1 UNL        -0.2533 
     12 C          -1.7872   -3.3125    0.0027 C.ar      1 UNL         0.2386 
     13 N          -1.1145   -4.3856    0.3396 N.2       1 UNL        -0.0922 
     14 N           0.2251   -4.0609    0.1408 N.2       1 UNL        -0.0216 
     15 N           0.3377   -2.7644   -0.3244 N.2       1 UNL        -0.0454 
     16 N          -0.9232   -2.3275   -0.3996 N.pl3     1 UNL        -0.2269 
     17 H          -6.0840   -3.8373   -0.8466 H         1 UNL         0.0407 
     18 H          -5.4979   -2.4134    0.0463 H         1 UNL         0.0407 
     19 H          -8.0852   -2.9425    0.8143 H         1 UNL         0.0620 
     20 H          -9.2588   -3.7303    2.8410 H         1 UNL         0.0618 
     21 H          -8.1038   -5.2153    4.4509 H         1 UNL         0.0632 
     22 H          -4.5969   -5.1202    1.9973 H         1 UNL         0.0635 
     23 H          -3.4190   -2.1091    0.0269 H         1 UNL         0.1577 
     24 H          -1.1801   -1.3956   -0.7128 H         1 UNL         0.1936 
@<TRIPOS>BOND
     1    1    2 2    
     2    2   11 am   BACKBONE|DICT|INTERRES
     3    2    3 1    
     4    3   18 1    
     5    3    4 1    
     6    3   17 1    
     7    4    5 ar   
     8    4   10 ar   
     9    5   19 1    
    10    5    6 ar   
    11    6   20 1    
    12    6    7 ar   
    13    7    8 ar   
    14    7   21 1    
    15    8   10 ar   
    16    8    9 1    
    17   10   22 1    
    18   11   23 1    
    19   11   12 1    
    20   12   16 ar   
    21   12   13 ar   
    22   13   14 ar   
    23   14   15 ar   
    24   15   16 ar   
    25   16   24 1    
@<TRIPOS>SUBSTRUCTURE
     1 UNL         1 GROUP             0       ****    0 ROOT    
@<TRIPOS>MOLECULE
PET-UNK-b1ef24dc-3
30   32    1
SMALL
USER_CHARGES


@<TRIPOS>ATOM
      1 O          -3.8727   -5.2583    0.0120 O.2       1 UNL        -0.2751 
      2 C          -4.1548   -4.0637    0.0223 C.2       1 UNL         0.2216 
      3 C          -5.5457   -3.5023    0.0401 C.3       1 UNL         0.0495 
      4 C          -6.2614   -3.9785    1.2693 C.ar      1 UNL        -0.0372 
      5 C          -7.5754   -3.5914    1.5145 C.ar      1 UNL        -0.0580 
      6 C          -8.2375   -4.0352    2.6569 C.ar      1 UNL        -0.0601 
      7 C          -7.5914   -4.8701    3.5642 C.ar      1 UNL        -0.0434 
      8 C          -6.2782   -5.2575    3.3199 C.ar      1 UNL         0.0412 
      9 Cl         -5.4654   -6.2923    4.4365 Cl        1 UNL        -0.0835 
     10 C          -5.6173   -4.8134    2.1780 C.ar      1 UNL        -0.0397 
     11 N          -3.2317   -3.1015    0.0188 N.am      1 UNL        -0.2834 
     12 C          -1.7872   -3.3125    0.0027 C.ar      1 UNL         0.0641 
     13 C          -1.2447   -4.6042   -0.0109 C.ar      1 UNL         0.0496 
     14 N           0.0921   -4.8664   -0.0262 N.ar      1 UNL        -0.2576 
     15 C           0.9689   -3.8243   -0.0287 C.ar      1 UNL         0.0732 
     16 C           0.4914   -2.5095   -0.0157 C.ar      1 UNL         0.1870 
     17 O           1.2033   -1.3458   -0.0157 O.3       1 UNL        -0.3531 
     18 N           0.2870   -0.2831    0.0003 N.2       1 UNL        -0.0854 
     19 C          -0.9233   -0.8076    0.0094 C.2       1 UNL         0.0797 
     20 C          -0.8833   -2.2338    0.0001 C.ar      1 UNL         0.0652 
     21 H          -6.0840   -3.8373   -0.8466 H         1 UNL         0.0407 
     22 H          -5.4979   -2.4134    0.0463 H         1 UNL         0.0407 
     23 H          -8.0852   -2.9425    0.8143 H         1 UNL         0.0620 
     24 H          -9.2588   -3.7303    2.8410 H         1 UNL         0.0618 
     25 H          -8.1038   -5.2153    4.4509 H         1 UNL         0.0632 
     26 H          -4.5969   -5.1202    1.9973 H         1 UNL         0.0635 
     27 H          -3.4190   -2.1091    0.0269 H         1 UNL         0.1549 
     28 H          -1.9028   -5.4655   -0.0095 H         1 UNL         0.0849 
     29 H           2.0292   -4.0386   -0.0409 H         1 UNL         0.0868 
     30 H          -1.8021   -0.1776    0.0224 H         1 UNL         0.0871 
@<TRIPOS>BOND
     1    1    2 2    
     2    2   11 am   BACKBONE|DICT|INTERRES
     3    2    3 1    
     4    3   22 1    
     5    3    4 1    
     6    3   21 1    
     7    4    5 ar   
     8    4   10 ar   
     9    5   23 1    
    10    5    6 ar   
    11    6   24 1    
    12    6    7 ar   
    13    7    8 ar   
    14    7   25 1    
    15    8   10 ar   
    16    8    9 1    
    17   10   26 1    
    18   11   12 1    
    19   11   27 1    
    20   12   20 ar   
    21   12   13 ar   
    22   13   14 ar   
    23   13   28 1    
    24   14   15 ar   
    25   15   29 1    
    26   15   16 ar   
    27   16   17 1    
    28   16   20 ar   
    29   17   18 1    
    30   18   19 2    
    31   19   20 1    
    32   19   30 1    
@<TRIPOS>SUBSTRUCTURE
     1 UNL         1 GROUP             0       ****    0 ROOT    
@<TRIPOS>MOLECULE
EDG-MED-0da5ad92-2
28   29    1
SMALL
USER_CHARGES


@<TRIPOS>ATOM
      1 O          -3.8727   -5.2583    0.0120 O.2       1 UNL        -0.2751 
      2 C          -4.1548   -4.0637    0.0223 C.2       1 UNL         0.2216 
      3 C          -5.5457   -3.5023    0.0401 C.3       1 UNL         0.0495 
      4 C          -6.2614   -3.9785    1.2693 C.ar      1 UNL        -0.0372 
      5 C          -7.5754   -3.5914    1.5145 C.ar      1 UNL        -0.0580 
      6 C          -8.2375   -4.0352    2.6569 C.ar      1 UNL        -0.0601 
      7 C          -7.5914   -4.8701    3.5642 C.ar      1 UNL        -0.0434 
      8 C          -6.2782   -5.2575    3.3199 C.ar      1 UNL         0.0412 
      9 Cl         -5.4654   -6.2923    4.4365 Cl        1 UNL        -0.0835 
     10 C          -5.6173   -4.8134    2.1780 C.ar      1 UNL        -0.0397 
     11 N          -3.2317   -3.1015    0.0188 N.am      1 UNL        -0.2840 
     12 C          -1.7872   -3.3125    0.0027 C.ar      1 UNL         0.0517 
     13 C          -1.2648   -4.6057   -0.0107 C.ar      1 UNL        -0.0376 
     14 C           0.1183   -4.7723   -0.0259 C.ar      1 UNL        -0.0418 
     15 C           0.9236   -3.6342   -0.0271 C.ar      1 UNL         0.0277 
     16 N           0.4282   -2.3692   -0.0141 N.ar      1 UNL        -0.2614 
     17 C          -0.9205   -2.2209    0.0006 C.ar      1 UNL         0.0487 
     18 H          -6.0840   -3.8373   -0.8465 H         1 UNL         0.0407 
     19 H          -5.4979   -2.4134    0.0463 H         1 UNL         0.0407 
     20 H          -8.0852   -2.9425    0.8143 H         1 UNL         0.0620 
     21 H          -9.2588   -3.7303    2.8410 H         1 UNL         0.0618 
     22 H          -8.1038   -5.2153    4.4509 H         1 UNL         0.0632 
     23 H          -4.5969   -5.1202    1.9973 H         1 UNL         0.0635 
     24 H          -3.4190   -2.1091    0.0269 H         1 UNL         0.1549 
     25 H          -1.9222   -5.4646   -0.0093 H         1 UNL         0.0637 
     26 H           0.5583   -5.7602   -0.0366 H         1 UNL         0.0633 
     27 H           2.0025   -3.7343   -0.0388 H         1 UNL         0.0829 
     28 H          -1.3086   -1.2093    0.0109 H         1 UNL         0.0848 
@<TRIPOS>BOND
     1    1    2 2    
     2    2   11 am   BACKBONE|DICT|INTERRES
     3    2    3 1    
     4    3   19 1    
     5    3    4 1    
     6    3   18 1    
     7    4    5 ar   
     8    4   10 ar   
     9    5   20 1    
    10    5    6 ar   
    11    6   21 1    
    12    6    7 ar   
    13    7    8 ar   
    14    7   22 1    
    15    8   10 ar   
    16    8    9 1    
    17   10   23 1    
    18   11   12 1    
    19   11   24 1    
    20   12   17 ar   
    21   12   13 ar   
    22   13   14 ar   
    23   13   25 1    
    24   14   15 ar   
    25   14   26 1    
    26   15   27 1    
    27   15   16 ar   
    28   16   17 ar   
    29   17   28 1    
@<TRIPOS>SUBSTRUCTURE
     1 UNL         1 GROUP             0       ****    0 ROOT    
@<TRIPOS>MOLECULE
MIC-UNK-08cd9c58-1
33   35    1
SMALL
USER_CHARGES


@<TRIPOS>ATOM
      1 O          -3.8727   -5.2583    0.0120 O.2       1 UNL        -0.2751 
      2 C          -4.1548   -4.0637    0.0223 C.2       1 UNL         0.2216 
      3 C          -5.5456   -3.5023    0.0401 C.3       1 UNL         0.0495 
      4 C          -6.2614   -3.9785    1.2693 C.ar      1 UNL        -0.0372 
      5 C          -7.5754   -3.5913    1.5145 C.ar      1 UNL        -0.0580 
      6 C          -8.2375   -4.0352    2.6569 C.ar      1 UNL        -0.0601 
      7 C          -7.5914   -4.8701    3.5642 C.ar      1 UNL        -0.0434 
      8 C          -6.2782   -5.2575    3.3199 C.ar      1 UNL         0.0412 
      9 Cl         -5.4654   -6.2923    4.4365 Cl        1 UNL        -0.0835 
     10 C          -5.6173   -4.8134    2.1780 C.ar      1 UNL        -0.0397 
     11 N          -3.2317   -3.1015    0.0188 N.am      1 UNL        -0.2835 
     12 C          -1.7872   -3.3125    0.0027 C.ar      1 UNL         0.0610 
     13 C          -1.2510   -4.6013   -0.0108 C.ar      1 UNL         0.0495 
     14 N           0.0826   -4.8539   -0.0261 N.ar      1 UNL        -0.2593 
     15 C           0.9253   -3.7867   -0.0281 C.ar      1 UNL         0.0536 
     16 C           0.5064   -2.4360   -0.0154 C.ar      1 UNL         0.0908 
     17 N           1.4206   -1.4204   -0.0184 N.ar      1 UNL        -0.2534 
     18 C           0.9515   -0.1450   -0.0057 C.ar      1 UNL         0.0283 
     19 C          -0.4056    0.1720    0.0102 C.ar      1 UNL        -0.0429 
     20 C          -1.3492   -0.8562    0.0135 C.ar      1 UNL        -0.0493 
     21 C          -0.9036   -2.2010    0.0006 C.ar      1 UNL         0.0245 
     22 H          -6.0840   -3.8373   -0.8465 H         1 UNL         0.0407 
     23 H          -5.4979   -2.4134    0.0464 H         1 UNL         0.0407 
     24 H          -8.0852   -2.9424    0.8144 H         1 UNL         0.0620 
     25 H          -9.2588   -3.7303    2.8410 H         1 UNL         0.0618 
     26 H          -8.1038   -5.2152    4.4509 H         1 UNL         0.0632 
     27 H          -4.5969   -5.1202    1.9973 H         1 UNL         0.0635 
     28 H          -3.4190   -2.1091    0.0269 H         1 UNL         0.1549 
     29 H          -1.9085   -5.4632   -0.0094 H         1 UNL         0.0849 
     30 H           1.9861   -3.9968   -0.0402 H         1 UNL         0.0851 
     31 H           1.6916    0.6468   -0.0083 H         1 UNL         0.0830 
     32 H          -0.7199    1.2070    0.0199 H         1 UNL         0.0633 
     33 H          -2.4091   -0.6404    0.0257 H         1 UNL         0.0625 
@<TRIPOS>BOND
     1    1    2 2    
     2    2   11 am   BACKBONE|DICT|INTERRES
     3    2    3 1    
     4    3   23 1    
     5    3    4 1    
     6    3   22 1    
     7    4   10 ar   
     8    4    5 ar   
     9    5    6 ar   
    10    5   24 1    
    11    6    7 ar   
    12    6   25 1    
    13    7    8 ar   
    14    7   26 1    
    15    8    9 1    
    16    8   10 ar   
    17   10   27 1    
    18   11   12 1    
    19   11   28 1    
    20   12   21 ar   
    21   12   13 ar   
    22   13   14 ar   
    23   13   29 1    
    24   14   15 ar   
    25   15   30 1    
    26   15   16 ar   
    27   16   17 ar   
    28   16   21 ar   
    29   17   18 ar   
    30   18   31 1    
    31   18   19 ar   
    32   19   32 1    
    33   19   20 ar   
    34   20   21 ar   
    35   20   33 1    
@<TRIPOS>SUBSTRUCTURE
     1 UNL         1 GROUP             0       ****    0 ROOT    
@<TRIPOS>MOLECULE
ADA-UCB-6c2cb422-1
34   36    1
SMALL
USER_CHARGES


@<TRIPOS>ATOM
      1 O          -3.8727   -5.2583    0.0120 O.2       1 UNL        -0.2751 
      2 C          -4.1548   -4.0637    0.0223 C.2       1 UNL         0.2216 
      3 C          -5.5457   -3.5023    0.0401 C.3       1 UNL         0.0495 
      4 C          -6.2614   -3.9785    1.2693 C.ar      1 UNL        -0.0372 
      5 C          -7.5754   -3.5913    1.5145 C.ar      1 UNL        -0.0580 
      6 C          -8.2375   -4.0352    2.6569 C.ar      1 UNL        -0.0601 
      7 C          -7.5914   -4.8701    3.5642 C.ar      1 UNL        -0.0434 
      8 C          -6.2782   -5.2575    3.3199 C.ar      1 UNL         0.0412 
      9 Cl         -5.4654   -6.2923    4.4365 Cl        1 UNL        -0.0835 
     10 C          -5.6173   -4.8134    2.1780 C.ar      1 UNL        -0.0397 
     11 N          -3.2317   -3.1015    0.0188 N.am      1 UNL        -0.2835 
     12 C          -1.7872   -3.3125    0.0027 C.ar      1 UNL         0.0595 
     13 C          -1.2538   -4.6012   -0.0108 C.ar      1 UNL         0.0494 
     14 N           0.0787   -4.8535   -0.0260 N.ar      1 UNL        -0.2608 
     15 C           0.9215   -3.7899   -0.0280 C.ar      1 UNL         0.0354 
     16 C           0.5014   -2.4392   -0.0153 C.ar      1 UNL         0.0020 
     17 C           1.3981   -1.3416   -0.0177 C.ar      1 UNL        -0.0525 
     18 C           0.9015   -0.0391   -0.0045 C.ar      1 UNL        -0.0611 
     19 C          -0.4707    0.1978    0.0110 C.ar      1 UNL        -0.0611 
     20 C          -1.3751   -0.8635    0.0137 C.ar      1 UNL        -0.0522 
     21 C          -0.9064   -2.2000    0.0006 C.ar      1 UNL         0.0063 
     22 H          -6.0840   -3.8373   -0.8465 H         1 UNL         0.0407 
     23 H          -5.4979   -2.4134    0.0463 H         1 UNL         0.0407 
     24 H          -8.0852   -2.9425    0.8143 H         1 UNL         0.0620 
     25 H          -9.2588   -3.7303    2.8410 H         1 UNL         0.0618 
     26 H          -8.1038   -5.2153    4.4509 H         1 UNL         0.0632 
     27 H          -4.5969   -5.1202    1.9973 H         1 UNL         0.0635 
     28 H          -3.4190   -2.1091    0.0269 H         1 UNL         0.1549 
     29 H          -1.9122   -5.4623   -0.0094 H         1 UNL         0.0849 
     30 H           1.9815   -4.0097   -0.0403 H         1 UNL         0.0836 
     31 H           2.4648   -1.5218   -0.0298 H         1 UNL         0.0624 
     32 H           1.5871    0.7986   -0.0063 H         1 UNL         0.0618 
     33 H          -0.8358    1.2168    0.0211 H         1 UNL         0.0618 
     34 H          -2.4399   -0.6744    0.0258 H         1 UNL         0.0624 
@<TRIPOS>BOND
     1    1    2 2    
     2    2   11 am   BACKBONE|DICT|INTERRES
     3    2    3 1    
     4    3   23 1    
     5    3    4 1    
     6    3   22 1    
     7    4    5 ar   
     8    4   10 ar   
     9    5   24 1    
    10    5    6 ar   
    11    6   25 1    
    12    6    7 ar   
    13    7    8 ar   
    14    7   26 1    
    15    8   10 ar   
    16    8    9 1    
    17   10   27 1    
    18   11   12 1    
    19   11   28 1    
    20   12   21 ar   
    21   12   13 ar   
    22   13   14 ar   
    23   13   29 1    
    24   14   15 ar   
    25   15   30 1    
    26   15   16 ar   
    27   16   17 ar   
    28   16   21 ar   
    29   17   31 1    
    30   17   18 ar   
    31   18   32 1    
    32   18   19 ar   
    33   19   33 1    
    34   19   20 ar   
    35   20   21 ar   
    36   20   34 1    
@<TRIPOS>SUBSTRUCTURE
     1 UNL         1 GROUP             0       ****    0 ROOT    
@<TRIPOS>MOLECULE
JIN-POS-6dc588a4-10
32   34    1
SMALL
USER_CHARGES


@<TRIPOS>ATOM
      1 O          -3.8729   -5.2586    0.0119 O.2       1 UNL        -0.2751 
      2 C          -4.1549   -4.0640    0.0222 C.2       1 UNL         0.2216 
      3 C          -5.5457   -3.5025    0.0400 C.3       1 UNL         0.0495 
      4 C          -6.2614   -3.9786    1.2692 C.ar      1 UNL        -0.0372 
      5 C          -7.5754   -3.5914    1.5145 C.ar      1 UNL        -0.0580 
      6 C          -8.2375   -4.0351    2.6569 C.ar      1 UNL        -0.0601 
      7 C          -7.5914   -4.8700    3.5642 C.ar      1 UNL        -0.0434 
      8 C          -6.2782   -5.2575    3.3199 C.ar      1 UNL         0.0412 
      9 Cl         -5.4654   -6.2923    4.4365 Cl        1 UNL        -0.0835 
     10 C          -5.6174   -4.8135    2.1779 C.ar      1 UNL        -0.0397 
     11 N          -3.2318   -3.1018    0.0186 N.am      1 UNL        -0.2823 
     12 C          -1.7872   -3.3129    0.0024 C.ar      1 UNL         0.0795 
     13 C          -1.2413   -4.5974   -0.0111 C.ar      1 UNL         0.0510 
     14 N           0.0950   -4.8403   -0.0264 N.ar      1 UNL        -0.2592 
     15 C           0.9335   -3.7702   -0.0284 C.ar      1 UNL         0.0551 
     16 C           0.5020   -2.4253   -0.0157 C.ar      1 UNL         0.1090 
     17 N           1.3905   -1.3848   -0.0184 N.ar      1 UNL        -0.2504 
     18 C           0.8578   -0.1317   -0.0052 C.ar      1 UNL         0.0464 
     19 C          -0.5215    0.0914    0.0104 C.ar      1 UNL         0.0464 
     20 N          -1.4209   -0.9320    0.0134 N.ar      1 UNL        -0.2500 
     21 C          -0.9123   -2.2007    0.0003 C.ar      1 UNL         0.1132 
     22 H          -6.0841   -3.8374   -0.8466 H         1 UNL         0.0407 
     23 H          -5.4979   -2.4135    0.0462 H         1 UNL         0.0407 
     24 H          -8.0852   -2.9425    0.8143 H         1 UNL         0.0620 
     25 H          -9.2587   -3.7301    2.8411 H         1 UNL         0.0618 
     26 H          -8.1037   -5.2151    4.4510 H         1 UNL         0.0632 
     27 H          -4.5970   -5.1203    1.9972 H         1 UNL         0.0635 
     28 H          -3.4190   -2.1094    0.0267 H         1 UNL         0.1549 
     29 H          -1.8926   -5.4640   -0.0098 H         1 UNL         0.0849 
     30 H           1.9959   -3.9740   -0.0406 H         1 UNL         0.0852 
     31 H           1.5461    0.7043   -0.0071 H         1 UNL         0.0845 
     32 H          -0.9118    1.1016    0.0207 H         1 UNL         0.0845 
@<TRIPOS>BOND
     1    1    2 2    
     2    2   11 am   BACKBONE|DICT|INTERRES
     3    2    3 1    
     4    3   23 1    
     5    3    4 1    
     6    3   22 1    
     7    4    5 ar   
     8    4   10 ar   
     9    5   24 1    
    10    5    6 ar   
    11    6   25 1    
    12    6    7 ar   
    13    7    8 ar   
    14    7   26 1    
    15    8   10 ar   
    16    8    9 1    
    17   10   27 1    
    18   11   12 1    
    19   11   28 1    
    20   12   21 ar   
    21   12   13 ar   
    22   13   14 ar   
    23   13   29 1    
    24   14   15 ar   
    25   15   30 1    
    26   15   16 ar   
    27   16   17 ar   
    28   16   21 ar   
    29   17   18 ar   
    30   18   31 1    
    31   18   19 ar   
    32   19   32 1    
    33   19   20 ar   
    34   20   21 ar   
@<TRIPOS>SUBSTRUCTURE
     1 UNL         1 GROUP             0       ****    0 ROOT    
@<TRIPOS>MOLECULE
VLA-UCB-00f2c2b3-7
32   34    1
SMALL
USER_CHARGES


@<TRIPOS>ATOM
      1 O          -3.8727   -5.2583    0.0120 O.2       1 UNL        -0.2751 
      2 C          -4.1548   -4.0637    0.0223 C.2       1 UNL         0.2215 
      3 C          -5.5457   -3.5023    0.0401 C.3       1 UNL         0.0495 
      4 C          -6.2614   -3.9785    1.2693 C.ar      1 UNL        -0.0372 
      5 C          -7.5754   -3.5914    1.5145 C.ar      1 UNL        -0.0580 
      6 C          -8.2375   -4.0352    2.6569 C.ar      1 UNL        -0.0601 
      7 C          -7.5914   -4.8701    3.5642 C.ar      1 UNL        -0.0434 
      8 C          -6.2782   -5.2575    3.3199 C.ar      1 UNL         0.0412 
      9 Cl         -5.4654   -6.2923    4.4365 Cl        1 UNL        -0.0835 
     10 C          -5.6173   -4.8134    2.1780 C.ar      1 UNL        -0.0397 
     11 N          -3.2317   -3.1015    0.0188 N.am      1 UNL        -0.2846 
     12 C          -1.7872   -3.3125    0.0027 C.ar      1 UNL         0.0441 
     13 C          -1.2624   -4.6047   -0.0107 C.ar      1 UNL        -0.0397 
     14 C           0.1131   -4.8185   -0.0261 C.ar      1 UNL        -0.0580 
     15 C           1.0182   -3.7553   -0.0288 C.ar      1 UNL        -0.0362 
     16 C           0.4875   -2.4625   -0.0153 C.ar      1 UNL         0.0675 
     17 N           1.0746   -1.2123   -0.0136 N.pl3     1 UNL        -0.2769 
     18 N           0.1560   -0.2226    0.0020 N.2       1 UNL        -0.1811 
     19 C          -1.0207   -0.7985    0.0105 C.ar      1 UNL         0.0587 
     20 C          -0.9063   -2.2218    0.0005 C.ar      1 UNL         0.0406 
     21 H          -6.0840   -3.8373   -0.8466 H         1 UNL         0.0407 
     22 H          -5.4979   -2.4134    0.0463 H         1 UNL         0.0407 
     23 H          -8.0852   -2.9425    0.8143 H         1 UNL         0.0620 
     24 H          -9.2588   -3.7303    2.8410 H         1 UNL         0.0618 
     25 H          -8.1038   -5.2153    4.4509 H         1 UNL         0.0632 
     26 H          -4.5969   -5.1202    1.9973 H         1 UNL         0.0635 
     27 H          -3.4190   -2.1091    0.0269 H         1 UNL         0.1548 
     28 H          -1.9320   -5.4553   -0.0091 H         1 UNL         0.0636 
     29 H           0.4871   -5.8345   -0.0363 H         1 UNL         0.0619 
     30 H           2.0848   -3.9332   -0.0409 H         1 UNL         0.0639 
     31 H           2.0719   -1.0090   -0.0225 H         1 UNL         0.1889 
     32 H          -1.9327   -0.2155    0.0235 H         1 UNL         0.0854 
@<TRIPOS>BOND
     1    1    2 2    
     2    2   11 am   BACKBONE|DICT|INTERRES
     3    2    3 1    
     4    3   22 1    
     5    3    4 1    
     6    3   21 1    
     7    4   10 ar   
     8    4    5 ar   
     9    5   23 1    
    10    5    6 ar   
    11    6    7 ar   
    12    6   24 1    
    13    7    8 ar   
    14    7   25 1    
    15    8   10 ar   
    16    8    9 1    
    17   10   26 1    
    18   11   12 1    
    19   11   27 1    
    20   12   20 ar   
    21   12   13 ar   
    22   13   14 ar   
    23   13   28 1    
    24   14   15 ar   
    25   14   29 1    
    26   15   30 1    
    27   15   16 ar   
    28   16   17 ar   
    29   16   20 ar   
    30   17   31 1    
    31   17   18 ar   
    32   18   19 ar   
    33   19   20 ar   
    34   19   32 1    
@<TRIPOS>SUBSTRUCTURE
     1 UNL         1 GROUP             0       ****    0 ROOT    
@<TRIPOS>MOLECULE
PET-UNK-e44ffd04-1
31   33    1
SMALL
USER_CHARGES


@<TRIPOS>ATOM
      1 O          -3.8727   -5.2583    0.0120 O.2       1 UNL        -0.2750 
      2 C          -4.1548   -4.0637    0.0223 C.2       1 UNL         0.2237 
      3 C          -5.5457   -3.5023    0.0401 C.3       1 UNL         0.0495 
      4 C          -6.2614   -3.9785    1.2693 C.ar      1 UNL        -0.0372 
      5 C          -7.5754   -3.5914    1.5145 C.ar      1 UNL        -0.0580 
      6 C          -8.2375   -4.0352    2.6569 C.ar      1 UNL        -0.0601 
      7 C          -7.5914   -4.8701    3.5642 C.ar      1 UNL        -0.0434 
      8 C          -6.2782   -5.2575    3.3199 C.ar      1 UNL         0.0412 
      9 Cl         -5.4654   -6.2923    4.4365 Cl        1 UNL        -0.0835 
     10 C          -5.6173   -4.8134    2.1780 C.ar      1 UNL        -0.0397 
     11 N          -3.2317   -3.1015    0.0188 N.am      1 UNL        -0.2540 
     12 C          -1.7872   -3.3125    0.0027 C.ar      1 UNL         0.2276 
     13 N          -1.1544   -4.4691   -0.0110 N.2       1 UNL        -0.1123 
     14 N           0.2106   -4.2311   -0.0235 N.2       1 UNL        -0.1278 
     15 C           0.3735   -2.8836   -0.0168 C.ar      1 UNL         0.1623 
     16 C           1.5156   -2.0676   -0.0234 C.ar      1 UNL        -0.0169 
     17 C           1.3663   -0.6776   -0.0132 C.ar      1 UNL        -0.0569 
     18 C           0.1003   -0.0980    0.0033 C.ar      1 UNL        -0.0450 
     19 C          -1.0329   -0.9083    0.0099 C.ar      1 UNL         0.0144 
     20 N          -0.8875   -2.2708   -0.0000 N.pl3     1 UNL        -0.2705 
     21 H          -6.0840   -3.8373   -0.8466 H         1 UNL         0.0407 
     22 H          -5.4979   -2.4134    0.0463 H         1 UNL         0.0407 
     23 H          -8.0852   -2.9425    0.8143 H         1 UNL         0.0620 
     24 H          -9.2588   -3.7303    2.8410 H         1 UNL         0.0618 
     25 H          -8.1038   -5.2153    4.4509 H         1 UNL         0.0632 
     26 H          -4.5969   -5.1202    1.9973 H         1 UNL         0.0635 
     27 H          -3.4190   -2.1091    0.0269 H         1 UNL         0.1577 
     28 H           2.4993   -2.5136   -0.0363 H         1 UNL         0.0655 
     29 H           2.2429   -0.0416   -0.0183 H         1 UNL         0.0619 
     30 H          -0.0004    0.9803    0.0111 H         1 UNL         0.0632 
     31 H          -2.0430   -0.5210    0.0227 H         1 UNL         0.0814 
@<TRIPOS>BOND
     1    1    2 2    
     2    2   11 am   BACKBONE|DICT|INTERRES
     3    2    3 1    
     4    3   22 1    
     5    3    4 1    
     6    3   21 1    
     7    4    5 ar   
     8    4   10 ar   
     9    5   23 1    
    10    5    6 ar   
    11    6   24 1    
    12    6    7 ar   
    13    7    8 ar   
    14    7   25 1    
    15    8   10 ar   
    16    8    9 1    
    17   10   26 1    
    18   11   12 1    
    19   11   27 1    
    20   12   20 ar   
    21   12   13 ar   
    22   13   14 ar   
    23   14   15 ar   
    24   15   16 ar   
    25   15   20 ar   
    26   16   28 1    
    27   16   17 ar   
    28   17   29 1    
    29   17   18 ar   
    30   18   30 1    
    31   18   19 ar   
    32   19   20 ar   
    33   19   31 1    
@<TRIPOS>SUBSTRUCTURE
     1 UNL         1 GROUP             0       ****    0 ROOT    
@<TRIPOS>MOLECULE
EDJ-MED-076d6e64-1
30   32    1
SMALL
USER_CHARGES


@<TRIPOS>ATOM
      1 O          -3.8727   -5.2583    0.0120 O.2       1 UNL        -0.2751 
      2 C          -4.1548   -4.0637    0.0223 C.2       1 UNL         0.2216 
      3 C          -5.5457   -3.5023    0.0401 C.3       1 UNL         0.0495 
      4 C          -6.2614   -3.9785    1.2693 C.ar      1 UNL        -0.0372 
      5 C          -7.5754   -3.5914    1.5145 C.ar      1 UNL        -0.0580 
      6 C          -8.2375   -4.0352    2.6569 C.ar      1 UNL        -0.0601 
      7 C          -7.5914   -4.8701    3.5642 C.ar      1 UNL        -0.0434 
      8 C          -6.2782   -5.2575    3.3199 C.ar      1 UNL         0.0412 
      9 Cl         -5.4654   -6.2923    4.4365 Cl        1 UNL        -0.0835 
     10 C          -5.6173   -4.8134    2.1780 C.ar      1 UNL        -0.0397 
     11 N          -3.2317   -3.1015    0.0188 N.am      1 UNL        -0.2811 
     12 C          -1.7872   -3.3125    0.0027 C.ar      1 UNL         0.0969 
     13 C          -1.2389   -4.5972   -0.0109 C.ar      1 UNL         0.0541 
     14 N           0.0982   -4.8393   -0.0261 N.2       1 UNL        -0.2431 
     15 C           0.9467   -3.7763   -0.0282 C.ar      1 UNL         0.1028 
     16 N           0.4801   -2.4885   -0.0154 N.pl3     1 UNL        -0.2706 
     17 C           1.0829   -1.2507   -0.0139 C.ar      1 UNL         0.1253 
     18 N           0.1699   -0.2999    0.0014 N.2       1 UNL        -0.1371 
     19 N          -1.0875   -0.8841    0.0106 N.2       1 UNL        -0.1277 
     20 C          -0.8972   -2.2268    0.0003 C.ar      1 UNL         0.1849 
     21 H          -6.0840   -3.8373   -0.8466 H         1 UNL         0.0407 
     22 H          -5.4979   -2.4134    0.0463 H         1 UNL         0.0407 
     23 H          -8.0852   -2.9425    0.8143 H         1 UNL         0.0620 
     24 H          -9.2588   -3.7303    2.8410 H         1 UNL         0.0618 
     25 H          -8.1038   -5.2153    4.4509 H         1 UNL         0.0632 
     26 H          -4.5969   -5.1202    1.9973 H         1 UNL         0.0635 
     27 H          -3.4190   -2.1091    0.0269 H         1 UNL         0.1550 
     28 H          -1.8900   -5.4648   -0.0096 H         1 UNL         0.0850 
     29 H           2.0203   -3.9217   -0.0401 H         1 UNL         0.1033 
     30 H           2.1573   -1.1199   -0.0241 H         1 UNL         0.1052 
@<TRIPOS>BOND
     1    1    2 2    
     2    2   11 am   BACKBONE|DICT|INTERRES
     3    2    3 1    
     4    3    4 1    
     5    3   22 1    
     6    3   21 1    
     7    4    5 ar   
     8    4   10 ar   
     9    5   23 1    
    10    5    6 ar   
    11    6   24 1    
    12    6    7 ar   
    13    7   25 1    
    14    7    8 ar   
    15    8   10 ar   
    16    8    9 1    
    17   10   26 1    
    18   11   12 1    
    19   11   27 1    
    20   12   20 ar   
    21   12   13 ar   
    22   13   14 ar   
    23   13   28 1    
    24   14   15 ar   
    25   15   29 1    
    26   15   16 ar   
    27   16   17 ar   
    28   16   20 ar   
    29   17   30 1    
    30   17   18 ar   
    31   18   19 ar   
    32   19   20 ar   
@<TRIPOS>SUBSTRUCTURE
     1 UNL         1 GROUP             0       ****    0 ROOT    
@<TRIPOS>MOLECULE
RUB-POS-1325a9ea-22
32   34    1
SMALL
USER_CHARGES


@<TRIPOS>ATOM
      1 O          -3.8727   -5.2583    0.0120 O.2       1 UNL        -0.2473 
      2 C          -4.1548   -4.0637    0.0223 C.2       1 UNL         0.3057 
      3 C          -5.5457   -3.5023    0.0401 C.3       1 UNL         0.0724 
      4 C          -6.2614   -3.9785    1.2693 C.ar      1 UNL        -0.0350 
      5 C          -7.5754   -3.5914    1.5145 C.ar      1 UNL        -0.0580 
      6 C          -8.2375   -4.0352    2.6569 C.ar      1 UNL        -0.0601 
      7 C          -7.5914   -4.8701    3.5642 C.ar      1 UNL        -0.0434 
      8 C          -6.2782   -5.2575    3.3199 C.ar      1 UNL         0.0412 
      9 Cl         -5.4654   -6.2923    4.4365 Cl        1 UNL        -0.0835 
     10 C          -5.6173   -4.8134    2.1780 C.ar      1 UNL        -0.0397 
     11 N          -3.2317   -3.1015    0.0188 N.am      1 UNL        -0.1715 
     12 C          -1.7872   -3.3125    0.0027 C.2       1 UNL         0.3208 
     13 N          -1.2482   -4.4708   -0.0100 N.am      1 UNL         0.0306 
     14 C           0.1178   -4.2753   -0.0228 C.2       1 UNL         0.3749 
     15 O           0.9617   -5.1712   -0.0370 O.2       1 UNL        -0.2377 
     16 C           0.3606   -2.8086   -0.0162 C.ar      1 UNL         0.0801 
     17 C           1.5398   -2.0653   -0.0236 C.ar      1 UNL        -0.0464 
     18 C           1.4349   -0.6722   -0.0139 C.ar      1 UNL        -0.0609 
     19 C           0.1855   -0.0421    0.0028 C.ar      1 UNL        -0.0609 
     20 C          -0.9823   -0.8079    0.0100 C.ar      1 UNL        -0.0462 
     21 C          -0.8675   -2.1979    0.0002 C.ar      1 UNL         0.0784 
     22 H          -6.0840   -3.8373   -0.8466 H         1 UNL         0.0430 
     23 H          -5.4979   -2.4134    0.0463 H         1 UNL         0.0430 
     24 H          -8.0852   -2.9425    0.8143 H         1 UNL         0.0620 
     25 H          -9.2588   -3.7303    2.8410 H         1 UNL         0.0618 
     26 H          -8.1038   -5.2153    4.4509 H         1 UNL         0.0632 
     27 H          -4.5969   -5.1202    1.9973 H         1 UNL         0.0635 
     28 H          -3.4190   -2.1091    0.0269 H         1 UNL         0.3011 
     29 H           2.5147   -2.5361   -0.0366 H         1 UNL         0.0626 
     30 H           2.3345   -0.0713   -0.0194 H         1 UNL         0.0618 
     31 H           0.1236    1.0378    0.0102 H         1 UNL         0.0618 
     32 H          -1.9466   -0.3172    0.0230 H         1 UNL         0.0626 
@<TRIPOS>BOND
     1    1    2 2    
     2    2   11 am   BACKBONE|DICT|INTERRES
     3    2    3 1    
     4    3   23 1    
     5    3    4 1    
     6    3   22 1    
     7    4    5 ar   
     8    4   10 ar   
     9    5   24 1    
    10    5    6 ar   
    11    6   25 1    
    12    6    7 ar   
    13    7   26 1    
    14    7    8 ar   
    15    8   10 ar   
    16    8    9 1    
    17   10   27 1    
    18   11   12 1    
    19   11   28 1    
    20   12   21 1    
    21   12   13 2    
    22   13   14 am   BACKBONE|DICT|INTERRES
    23   14   16 1    
    24   14   15 2    
    25   16   17 ar   
    26   16   21 ar   
    27   17   18 ar   
    28   17   29 1    
    29   18   30 1    
    30   18   19 ar   
    31   19   31 1    
    32   19   20 ar   
    33   20   32 1    
    34   20   21 ar   
@<TRIPOS>SUBSTRUCTURE
     1 UNL         1 GROUP             0       ****    0 ROOT    
@<TRIPOS>MOLECULE
EDJ-MED-50fe53e8-2
33   35    1
SMALL
USER_CHARGES


@<TRIPOS>ATOM
      1 O          -3.8728   -5.2584    0.0119 O.2       1 UNL        -0.2751 
      2 C          -4.1548   -4.0638    0.0223 C.2       1 UNL         0.2216 
      3 C          -5.5457   -3.5023    0.0401 C.3       1 UNL         0.0495 
      4 C          -6.2614   -3.9785    1.2693 C.ar      1 UNL        -0.0372 
      5 C          -7.5754   -3.5913    1.5145 C.ar      1 UNL        -0.0580 
      6 C          -8.2375   -4.0352    2.6569 C.ar      1 UNL        -0.0601 
      7 C          -7.5914   -4.8701    3.5642 C.ar      1 UNL        -0.0434 
      8 C          -6.2783   -5.2576    3.3199 C.ar      1 UNL         0.0412 
      9 Cl         -5.4654   -6.2924    4.4364 Cl        1 UNL        -0.0835 
     10 C          -5.6173   -4.8135    2.1779 C.ar      1 UNL        -0.0397 
     11 N          -3.2317   -3.1016    0.0188 N.am      1 UNL        -0.2834 
     12 C          -1.7872   -3.3127    0.0027 C.ar      1 UNL         0.0627 
     13 C          -1.2369   -4.5917   -0.0110 C.ar      1 UNL         0.0717 
     14 N           0.1021   -4.8110   -0.0261 N.ar      1 UNL        -0.1552 
     15 N           0.9611   -3.7786   -0.0285 N.ar      1 UNL        -0.1492 
     16 C           0.4980   -2.4946   -0.0157 C.ar      1 UNL         0.0951 
     17 C           1.4137   -1.4179   -0.0184 C.ar      1 UNL        -0.0339 
     18 C           0.9612   -0.1001   -0.0055 C.ar      1 UNL        -0.0597 
     19 C          -0.4016    0.1739    0.0102 C.ar      1 UNL        -0.0610 
     20 C          -1.3283   -0.8659    0.0132 C.ar      1 UNL        -0.0507 
     21 C          -0.8982   -2.2131    0.0004 C.ar      1 UNL         0.0248 
     22 H          -6.0840   -3.8372   -0.8465 H         1 UNL         0.0407 
     23 H          -5.4978   -2.4134    0.0464 H         1 UNL         0.0407 
     24 H          -8.0852   -2.9424    0.8144 H         1 UNL         0.0620 
     25 H          -9.2587   -3.7302    2.8411 H         1 UNL         0.0618 
     26 H          -8.1038   -5.2153    4.4509 H         1 UNL         0.0632 
     27 H          -4.5970   -5.1203    1.9973 H         1 UNL         0.0635 
     28 H          -3.4190   -2.1092    0.0269 H         1 UNL         0.1549 
     29 H          -1.8725   -5.4676   -0.0099 H         1 UNL         0.0867 
     30 H           2.4745   -1.6293   -0.0306 H         1 UNL         0.0639 
     31 H           1.6720    0.7162   -0.0077 H         1 UNL         0.0618 
     32 H          -0.7410    1.2018    0.0201 H         1 UNL         0.0618 
     33 H          -2.3881   -0.6480    0.0255 H         1 UNL         0.0625 
@<TRIPOS>BOND
     1    1    2 2    
     2    2   11 am   BACKBONE|DICT|INTERRES
     3    2    3 1    
     4    3   23 1    
     5    3    4 1    
     6    3   22 1    
     7    4    5 ar   
     8    4   10 ar   
     9    5   24 1    
    10    5    6 ar   
    11    6   25 1    
    12    6    7 ar   
    13    7    8 ar   
    14    7   26 1    
    15    8   10 ar   
    16    8    9 1    
    17   10   27 1    
    18   11   12 1    
    19   11   28 1    
    20   12   21 ar   
    21   12   13 ar   
    22   13   14 ar   
    23   13   29 1    
    24   14   15 ar   
    25   15   16 ar   
    26   16   17 ar   
    27   16   21 ar   
    28   17   30 1    
    29   17   18 ar   
    30   18   31 1    
    31   18   19 ar   
    32   19   32 1    
    33   19   20 ar   
    34   20   21 ar   
    35   20   33 1    
@<TRIPOS>SUBSTRUCTURE
     1 UNL         1 GROUP             0       ****    0 ROOT    
@<TRIPOS>MOLECULE
EDJ-MED-50fe53e8-3
32   34    1
SMALL
USER_CHARGES


@<TRIPOS>ATOM
      1 O          -3.8727   -5.2583    0.0120 O.2       1 UNL        -0.2751 
      2 C          -4.1548   -4.0637    0.0223 C.2       1 UNL         0.2226 
      3 C          -5.5457   -3.5023    0.0401 C.3       1 UNL         0.0495 
      4 C          -6.2614   -3.9785    1.2693 C.ar      1 UNL        -0.0372 
      5 C          -7.5754   -3.5914    1.5145 C.ar      1 UNL        -0.0580 
      6 C          -8.2375   -4.0352    2.6569 C.ar      1 UNL        -0.0601 
      7 C          -7.5914   -4.8701    3.5642 C.ar      1 UNL        -0.0434 
      8 C          -6.2782   -5.2575    3.3199 C.ar      1 UNL         0.0412 
      9 Cl         -5.4654   -6.2923    4.4365 Cl        1 UNL        -0.0835 
     10 C          -5.6173   -4.8134    2.1780 C.ar      1 UNL        -0.0397 
     11 N          -3.2317   -3.1015    0.0188 N.am      1 UNL        -0.2684 
     12 C          -1.7872   -3.3125    0.0027 C.ar      1 UNL         0.1507 
     13 N          -1.2678   -4.5243   -0.0102 N.2       1 UNL        -0.2199 
     14 C           0.0442   -4.3768   -0.0227 C.ar      1 UNL         0.1026 
     15 N           0.4199   -3.0536   -0.0183 N.pl3     1 UNL        -0.3041 
     16 C           1.6490   -2.4478   -0.0271 C.ar      1 UNL         0.0113 
     17 C           1.7353   -1.0586   -0.0194 C.ar      1 UNL        -0.0451 
     18 C           0.5703   -0.2997   -0.0027 C.ar      1 UNL        -0.0583 
     19 C          -0.6840   -0.9145    0.0063 C.ar      1 UNL        -0.0344 
     20 C          -0.7751   -2.3187   -0.0015 C.ar      1 UNL         0.0876 
     21 H          -6.0840   -3.8373   -0.8466 H         1 UNL         0.0407 
     22 H          -5.4979   -2.4134    0.0463 H         1 UNL         0.0407 
     23 H          -8.0852   -2.9425    0.8143 H         1 UNL         0.0620 
     24 H          -9.2588   -3.7303    2.8410 H         1 UNL         0.0618 
     25 H          -8.1038   -5.2153    4.4509 H         1 UNL         0.0632 
     26 H          -4.5969   -5.1202    1.9973 H         1 UNL         0.0635 
     27 H          -3.4190   -2.1091    0.0269 H         1 UNL         0.1563 
     28 H           0.7808   -5.1697   -0.0352 H         1 UNL         0.1033 
     29 H           2.5126   -3.0981   -0.0400 H         1 UNL         0.0813 
     30 H           2.7017   -0.5696   -0.0263 H         1 UNL         0.0632 
     31 H           0.6393    0.7810    0.0033 H         1 UNL         0.0619 
     32 H          -1.5813   -0.3108    0.0193 H         1 UNL         0.0639 
@<TRIPOS>BOND
     1    1    2 2    
     2    2   11 am   BACKBONE|DICT|INTERRES
     3    2    3 1    
     4    3   22 1    
     5    3    4 1    
     6    3   21 1    
     7    4    5 ar   
     8    4   10 ar   
     9    5   23 1    
    10    5    6 ar   
    11    6   24 1    
    12    6    7 ar   
    13    7    8 ar   
    14    7   25 1    
    15    8   10 ar   
    16    8    9 1    
    17   10   26 1    
    18   11   12 1    
    19   11   27 1    
    20   12   20 ar   
    21   12   13 ar   
    22   13   14 ar   
    23   14   15 ar   
    24   14   28 1    
    25   15   16 ar   
    26   15   20 ar   
    27   16   17 ar   
    28   16   29 1    
    29   17   30 1    
    30   17   18 ar   
    31   18   31 1    
    32   18   19 ar   
    33   19   32 1    
    34   19   20 ar   
@<TRIPOS>SUBSTRUCTURE
     1 UNL         1 GROUP             0       ****    0 ROOT    
@<TRIPOS>MOLECULE
MIC-UNK-66895286-1
26   27    1
SMALL
USER_CHARGES


@<TRIPOS>ATOM
      1 O          -3.8727   -5.2583    0.0120 O.2       1 UNL        -0.2751 
      2 C          -4.1548   -4.0637    0.0223 C.2       1 UNL         0.2216 
      3 C          -5.5457   -3.5023    0.0401 C.3       1 UNL         0.0495 
      4 C          -6.2614   -3.9785    1.2693 C.ar      1 UNL        -0.0372 
      5 C          -7.5754   -3.5914    1.5145 C.ar      1 UNL        -0.0580 
      6 C          -8.2375   -4.0352    2.6569 C.ar      1 UNL        -0.0601 
      7 C          -7.5914   -4.8701    3.5642 C.ar      1 UNL        -0.0434 
      8 C          -6.2782   -5.2575    3.3199 C.ar      1 UNL         0.0412 
      9 Cl         -5.4654   -6.2923    4.4365 Cl        1 UNL        -0.0835 
     10 C          -5.6173   -4.8134    2.1780 C.ar      1 UNL        -0.0397 
     11 N          -3.2317   -3.1015    0.0188 N.am      1 UNL        -0.2828 
     12 C          -1.7872   -3.3125    0.0027 C.ar      1 UNL         0.0710 
     13 C          -1.1113   -4.5368   -0.0118 C.ar      1 UNL         0.0704 
     14 N           0.1942   -4.3794   -0.0242 N.2       1 UNL        -0.1804 
     15 N           0.3812   -3.0486   -0.0179 N.pl3     1 UNL        -0.2829 
     16 C          -0.7960   -2.3482   -0.0015 C.ar      1 UNL         0.0435 
     17 H          -6.0840   -3.8373   -0.8466 H         1 UNL         0.0407 
     18 H          -5.4979   -2.4134    0.0463 H         1 UNL         0.0407 
     19 H          -8.0852   -2.9425    0.8143 H         1 UNL         0.0620 
     20 H          -9.2588   -3.7303    2.8410 H         1 UNL         0.0618 
     21 H          -8.1038   -5.2153    4.4509 H         1 UNL         0.0632 
     22 H          -4.5969   -5.1202    1.9973 H         1 UNL         0.0635 
     23 H          -3.4190   -2.1091    0.0269 H         1 UNL         0.1549 
     24 H          -1.5740   -5.5175   -0.0132 H         1 UNL         0.0867 
     25 H           1.3065   -2.6198   -0.0247 H         1 UNL         0.1883 
     26 H          -0.8134   -1.2652    0.0055 H         1 UNL         0.0843 
@<TRIPOS>BOND
     1    1    2 2    
     2    2   11 am   BACKBONE|DICT|INTERRES
     3    2    3 1    
     4    3    4 1    
     5    3   18 1    
     6    3   17 1    
     7    4    5 ar   
     8    4   10 ar   
     9    5   19 1    
    10    5    6 ar   
    11    6   20 1    
    12    6    7 ar   
    13    7   21 1    
    14    7    8 ar   
    15    8   10 ar   
    16    8    9 1    
    17   10   22 1    
    18   11   12 1    
    19   11   23 1    
    20   12   13 ar   
    21   12   16 ar   
    22   13   14 ar   
    23   13   24 1    
    24   14   15 ar   
    25   15   25 1    
    26   15   16 ar   
    27   16   26 1    
@<TRIPOS>SUBSTRUCTURE
     1 UNL         1 GROUP             0       ****    0 ROOT    
@<TRIPOS>MOLECULE
MAT-POS-bb423b95-6
35   37    1
SMALL
USER_CHARGES


@<TRIPOS>ATOM
      1 O          -3.8727   -5.2584    0.0120 O.2       1 UNL        -0.2751 
      2 C          -4.1548   -4.0638    0.0223 C.2       1 UNL         0.2216 
      3 C          -5.5457   -3.5023    0.0400 C.3       1 UNL         0.0495 
      4 C          -6.2614   -3.9785    1.2693 C.ar      1 UNL        -0.0372 
      5 C          -7.5754   -3.5914    1.5145 C.ar      1 UNL        -0.0580 
      6 C          -8.2375   -4.0352    2.6569 C.ar      1 UNL        -0.0601 
      7 C          -7.5914   -4.8701    3.5642 C.ar      1 UNL        -0.0434 
      8 C          -6.2782   -5.2575    3.3199 C.ar      1 UNL         0.0412 
      9 Cl         -5.4654   -6.2923    4.4365 Cl        1 UNL        -0.0835 
     10 C          -5.6173   -4.8135    2.1780 C.ar      1 UNL        -0.0397 
     11 N          -3.2318   -3.1016    0.0188 N.am      1 UNL        -0.2836 
     12 C          -1.7872   -3.3126    0.0027 C.ar      1 UNL         0.0575 
     13 C          -1.2723   -4.5548   -0.0103 C.ar      1 UNL         0.0268 
     14 N           0.0671   -4.8351   -0.0258 N.pl3     1 UNL        -0.3268 
     15 C           1.0450   -3.8945   -0.0300 C.ar      1 UNL         0.2566 
     16 O           2.2303   -4.2346   -0.0443 O.2       1 UNL        -0.2672 
     17 C           0.5298   -2.4538   -0.0158 C.ar      1 UNL         0.0482 
     18 C           1.4476   -1.3985   -0.0186 C.ar      1 UNL        -0.0488 
     19 C           1.0011   -0.0804   -0.0059 C.ar      1 UNL        -0.0610 
     20 C          -0.3651    0.1834    0.0098 C.ar      1 UNL        -0.0611 
     21 C          -1.2874   -0.8598    0.0128 C.ar      1 UNL        -0.0520 
     22 C          -0.8502   -2.1802    0.0001 C.ar      1 UNL         0.0099 
     23 H          -6.0840   -3.8373   -0.8466 H         1 UNL         0.0407 
     24 H          -5.4979   -2.4134    0.0463 H         1 UNL         0.0407 
     25 H          -8.0852   -2.9425    0.8143 H         1 UNL         0.0620 
     26 H          -9.2588   -3.7303    2.8410 H         1 UNL         0.0618 
     27 H          -8.1038   -5.2152    4.4509 H         1 UNL         0.0632 
     28 H          -4.5969   -5.1202    1.9973 H         1 UNL         0.0635 
     29 H          -3.4190   -2.1091    0.0269 H         1 UNL         0.1549 
     30 H          -1.8749   -5.4552   -0.0097 H         1 UNL         0.0827 
     31 H           0.4134   -5.7825   -0.0352 H         1 UNL         0.1684 
     32 H           2.5136   -1.5903   -0.0308 H         1 UNL         0.0625 
     33 H           1.7128    0.7344   -0.0081 H         1 UNL         0.0618 
     34 H          -0.7142    1.2073    0.0197 H         1 UNL         0.0618 
     35 H          -2.3455   -0.6350    0.0250 H         1 UNL         0.0624 
@<TRIPOS>BOND
     1    1    2 2    
     2    2   11 am   BACKBONE|DICT|INTERRES
     3    2    3 1    
     4    3   24 1    
     5    3    4 1    
     6    3   23 1    
     7    4   10 ar   
     8    4    5 ar   
     9    5   25 1    
    10    5    6 ar   
    11    6    7 ar   
    12    6   26 1    
    13    7    8 ar   
    14    7   27 1    
    15    8   10 ar   
    16    8    9 1    
    17   10   28 1    
    18   11   12 1    
    19   11   29 1    
    20   12   22 ar   
    21   12   13 ar   
    22   13   14 ar   
    23   13   30 1    
    24   14   15 ar   
    25   14   31 1    
    26   15   16 2    
    27   15   17 ar   
    28   17   18 ar   
    29   17   22 ar   
    30   18   32 1    
    31   18   19 ar   
    32   19   33 1    
    33   19   20 ar   
    34   20   34 1    
    35   20   21 ar   
    36   21   22 ar   
    37   21   35 1    
@<TRIPOS>SUBSTRUCTURE
     1 UNL         1 GROUP             0       ****    0 ROOT    
@<TRIPOS>MOLECULE
JIN-POS-6dc588a4-2
30   32    1
SMALL
USER_CHARGES


@<TRIPOS>ATOM
      1 O          -3.8727   -5.2583    0.0120 O.2       1 UNL        -0.2751 
      2 C          -4.1548   -4.0637    0.0223 C.2       1 UNL         0.2227 
      3 C          -5.5457   -3.5023    0.0401 C.3       1 UNL         0.0495 
      4 C          -6.2614   -3.9785    1.2693 C.ar      1 UNL        -0.0372 
      5 C          -7.5754   -3.5914    1.5145 C.ar      1 UNL        -0.0580 
      6 C          -8.2375   -4.0352    2.6569 C.ar      1 UNL        -0.0601 
      7 C          -7.5914   -4.8701    3.5642 C.ar      1 UNL        -0.0434 
      8 C          -6.2782   -5.2575    3.3199 C.ar      1 UNL         0.0412 
      9 Cl         -5.4654   -6.2923    4.4365 Cl        1 UNL        -0.0835 
     10 C          -5.6173   -4.8134    2.1780 C.ar      1 UNL        -0.0397 
     11 N          -3.2317   -3.1015    0.0188 N.am      1 UNL        -0.2669 
     12 C          -1.7872   -3.3125    0.0027 C.2       1 UNL         0.1772 
     13 N          -1.2799   -4.5309   -0.0101 N.2       1 UNL        -0.0598 
     14 O           0.1191   -4.4036   -0.0236 O.3       1 UNL        -0.3327 
     15 C           0.4149   -3.0723   -0.0184 C.ar      1 UNL         0.2601 
     16 N           1.6647   -2.6051   -0.0283 N.ar      1 UNL        -0.2184 
     17 C           1.7518   -1.2440   -0.0207 C.ar      1 UNL         0.0315 
     18 C           0.6450   -0.3855   -0.0040 C.ar      1 UNL        -0.0427 
     19 C          -0.6516   -0.9154    0.0060 C.ar      1 UNL        -0.0445 
     20 C          -0.7660   -2.3159   -0.0016 C.ar      1 UNL         0.0826 
     21 H          -6.0840   -3.8373   -0.8466 H         1 UNL         0.0407 
     22 H          -5.4979   -2.4134    0.0463 H         1 UNL         0.0407 
     23 H          -8.0852   -2.9425    0.8143 H         1 UNL         0.0620 
     24 H          -9.2588   -3.7303    2.8410 H         1 UNL         0.0618 
     25 H          -8.1038   -5.2153    4.4509 H         1 UNL         0.0632 
     26 H          -4.5969   -5.1202    1.9973 H         1 UNL         0.0635 
     27 H          -3.4190   -2.1091    0.0269 H         1 UNL         0.1563 
     28 H           2.7525   -0.8285   -0.0284 H         1 UNL         0.0831 
     29 H           0.7966    0.6856    0.0011 H         1 UNL         0.0633 
     30 H          -1.5242   -0.2748    0.0189 H         1 UNL         0.0627 
@<TRIPOS>BOND
     1    1    2 2    
     2    2   11 am   BACKBONE|DICT|INTERRES
     3    2    3 1    
     4    3   22 1    
     5    3    4 1    
     6    3   21 1    
     7    4    5 ar   
     8    4   10 ar   
     9    5   23 1    
    10    5    6 ar   
    11    6   24 1    
    12    6    7 ar   
    13    7    8 ar   
    14    7   25 1    
    15    8   10 ar   
    16    8    9 1    
    17   10   26 1    
    18   11   27 1    
    19   11   12 1    
    20   12   20 1    
    21   12   13 2    
    22   13   14 1    
    23   14   15 1    
    24   15   16 ar   
    25   15   20 ar   
    26   16   17 ar   
    27   17   28 1    
    28   17   18 ar   
    29   18   29 1    
    30   18   19 ar   
    31   19   30 1    
    32   19   20 ar   
@<TRIPOS>SUBSTRUCTURE
     1 UNL         1 GROUP             0       ****    0 ROOT    
@<TRIPOS>MOLECULE
JIN-POS-6dc588a4-14
32   34    1
SMALL
USER_CHARGES


@<TRIPOS>ATOM
      1 O          -3.8727   -5.2583    0.0120 O.2       1 UNL        -0.2751 
      2 C          -4.1548   -4.0637    0.0223 C.2       1 UNL         0.2216 
      3 C          -5.5457   -3.5023    0.0401 C.3       1 UNL         0.0495 
      4 C          -6.2614   -3.9785    1.2693 C.ar      1 UNL        -0.0372 
      5 C          -7.5754   -3.5914    1.5145 C.ar      1 UNL        -0.0580 
      6 C          -8.2375   -4.0352    2.6569 C.ar      1 UNL        -0.0601 
      7 C          -7.5914   -4.8701    3.5642 C.ar      1 UNL        -0.0434 
      8 C          -6.2782   -5.2575    3.3199 C.ar      1 UNL         0.0412 
      9 Cl         -5.4654   -6.2923    4.4365 Cl        1 UNL        -0.0835 
     10 C          -5.6173   -4.8134    2.1780 C.ar      1 UNL        -0.0397 
     11 N          -3.2317   -3.1015    0.0188 N.am      1 UNL        -0.2824 
     12 C          -1.7872   -3.3125    0.0027 C.ar      1 UNL         0.0759 
     13 C          -1.2386   -4.5958   -0.0109 C.ar      1 UNL         0.0508 
     14 N           0.0940   -4.8540   -0.0262 N.ar      1 UNL        -0.2607 
     15 C           0.9672   -3.8108   -0.0286 C.ar      1 UNL         0.0368 
     16 C           0.5345   -2.4760   -0.0159 C.ar      1 UNL         0.0196 
     17 C           1.1671   -1.1885   -0.0144 C.ar      1 UNL        -0.0351 
     18 C           0.1595   -0.2440    0.0018 C.ar      1 UNL         0.0028 
     19 N          -1.0566   -0.8873    0.0103 N.pl3     1 UNL        -0.3591 
     20 C          -0.8736   -2.2538   -0.0001 C.ar      1 UNL         0.0709 
     21 H          -6.0840   -3.8373   -0.8466 H         1 UNL         0.0407 
     22 H          -5.4979   -2.4134    0.0463 H         1 UNL         0.0407 
     23 H          -8.0852   -2.9425    0.8143 H         1 UNL         0.0620 
     24 H          -9.2588   -3.7303    2.8410 H         1 UNL         0.0618 
     25 H          -8.1038   -5.2153    4.4509 H         1 UNL         0.0632 
     26 H          -4.5969   -5.1202    1.9973 H         1 UNL         0.0635 
     27 H          -3.4190   -2.1091    0.0269 H         1 UNL         0.1549 
     28 H          -1.8945   -5.4591   -0.0095 H         1 UNL         0.0849 
     29 H           2.0236   -4.0463   -0.0409 H         1 UNL         0.0836 
     30 H           2.2270   -0.9727   -0.0239 H         1 UNL         0.0639 
     31 H           0.2049    0.8395    0.0081 H         1 UNL         0.0807 
     32 H          -1.9433   -0.3911    0.0225 H         1 UNL         0.1654 
@<TRIPOS>BOND
     1    1    2 2    
     2    2   11 am   BACKBONE|DICT|INTERRES
     3    2    3 1    
     4    3   22 1    
     5    3    4 1    
     6    3   21 1    
     7    4    5 ar   
     8    4   10 ar   
     9    5   23 1    
    10    5    6 ar   
    11    6   24 1    
    12    6    7 ar   
    13    7    8 ar   
    14    7   25 1    
    15    8   10 ar   
    16    8    9 1    
    17   10   26 1    
    18   11   12 1    
    19   11   27 1    
    20   12   20 ar   
    21   12   13 ar   
    22   13   14 ar   
    23   13   28 1    
    24   14   15 ar   
    25   15   29 1    
    26   15   16 ar   
    27   16   17 ar   
    28   16   20 ar   
    29   17   30 1    
    30   17   18 ar   
    31   18   31 1    
    32   18   19 ar   
    33   19   20 ar   
    34   19   32 1    
@<TRIPOS>SUBSTRUCTURE
     1 UNL         1 GROUP             0       ****    0 ROOT    
@<TRIPOS>MOLECULE
JIN-POS-6dc588a4-5
33   35    1
SMALL
USER_CHARGES


@<TRIPOS>ATOM
      1 O          -3.8727   -5.2583    0.0120 O.2       1 UNL        -0.2751 
      2 C          -4.1548   -4.0637    0.0223 C.2       1 UNL         0.2216 
      3 C          -5.5457   -3.5023    0.0401 C.3       1 UNL         0.0495 
      4 C          -6.2614   -3.9785    1.2693 C.ar      1 UNL        -0.0372 
      5 C          -7.5754   -3.5914    1.5145 C.ar      1 UNL        -0.0580 
      6 C          -8.2375   -4.0352    2.6569 C.ar      1 UNL        -0.0601 
      7 C          -7.5914   -4.8701    3.5642 C.ar      1 UNL        -0.0434 
      8 C          -6.2782   -5.2575    3.3199 C.ar      1 UNL         0.0412 
      9 Cl         -5.4654   -6.2923    4.4365 Cl        1 UNL        -0.0835 
     10 C          -5.6173   -4.8134    2.1780 C.ar      1 UNL        -0.0397 
     11 N          -3.2317   -3.1015    0.0188 N.am      1 UNL        -0.2835 
     12 C          -1.7872   -3.3125    0.0027 C.ar      1 UNL         0.0587 
     13 C          -1.1625   -4.5433   -0.0113 C.ar      1 UNL         0.0242 
     14 N           0.1983   -4.3502   -0.0241 N.pl3     1 UNL        -0.3590 
     15 C           0.4898   -3.0019   -0.0187 C.ar      1 UNL         0.0483 
     16 C           1.7152   -2.3280   -0.0271 C.ar      1 UNL        -0.0377 
     17 C           1.6709   -0.9322   -0.0179 C.ar      1 UNL        -0.0598 
     18 C           0.4648   -0.2351   -0.0012 C.ar      1 UNL        -0.0610 
     19 C          -0.7579   -0.9074    0.0071 C.ar      1 UNL        -0.0508 
     20 C          -0.7612   -2.3110   -0.0016 C.ar      1 UNL         0.0209 
     21 H          -6.0840   -3.8373   -0.8466 H         1 UNL         0.0407 
     22 H          -5.4979   -2.4134    0.0463 H         1 UNL         0.0407 
     23 H          -8.0852   -2.9425    0.8143 H         1 UNL         0.0620 
     24 H          -9.2588   -3.7303    2.8410 H         1 UNL         0.0618 
     25 H          -8.1038   -5.2153    4.4509 H         1 UNL         0.0632 
     26 H          -4.5969   -5.1202    1.9973 H         1 UNL         0.0635 
     27 H          -3.4190   -2.1091    0.0269 H         1 UNL         0.1549 
     28 H          -1.5730   -5.5470   -0.0134 H         1 UNL         0.0826 
     29 H           0.8638   -5.1183   -0.0357 H         1 UNL         0.1654 
     30 H           2.6582   -2.8570   -0.0400 H         1 UNL         0.0638 
     31 H           2.5985   -0.3739   -0.0240 H         1 UNL         0.0618 
     32 H           0.4793    0.8474    0.0053 H         1 UNL         0.0618 
     33 H          -1.6873   -0.3553    0.0201 H         1 UNL         0.0625 
@<TRIPOS>BOND
     1    1    2 2    
     2    2   11 am   BACKBONE|DICT|INTERRES
     3    2    3 1    
     4    3   22 1    
     5    3    4 1    
     6    3   21 1    
     7    4    5 ar   
     8    4   10 ar   
     9    5   23 1    
    10    5    6 ar   
    11    6   24 1    
    12    6    7 ar   
    13    7    8 ar   
    14    7   25 1    
    15    8   10 ar   
    16    8    9 1    
    17   10   26 1    
    18   11   12 1    
    19   11   27 1    
    20   12   20 ar   
    21   12   13 ar   
    22   13   14 ar   
    23   13   28 1    
    24   14   15 ar   
    25   14   29 1    
    26   15   16 ar   
    27   15   20 ar   
    28   16   30 1    
    29   16   17 ar   
    30   17   31 1    
    31   17   18 ar   
    32   18   32 1    
    33   18   19 ar   
    34   19   20 ar   
    35   19   33 1    
@<TRIPOS>SUBSTRUCTURE
     1 UNL         1 GROUP             0       ****    0 ROOT    
@<TRIPOS>MOLECULE
JIN-POS-6dc588a4-7
33   35    1
SMALL
USER_CHARGES


@<TRIPOS>ATOM
      1 O          -3.8727   -5.2583    0.0120 O.2       1 UNL        -0.2754 
      2 C          -4.1548   -4.0637    0.0223 C.2       1 UNL         0.2194 
      3 C          -5.5457   -3.5023    0.0401 C.3       1 UNL         0.0492 
      4 C          -6.2614   -3.9785    1.2693 C.ar      1 UNL        -0.0372 
      5 C          -7.5754   -3.5914    1.5145 C.ar      1 UNL        -0.0580 
      6 C          -8.2375   -4.0352    2.6569 C.ar      1 UNL        -0.0601 
      7 C          -7.5914   -4.8701    3.5642 C.ar      1 UNL        -0.0434 
      8 C          -6.2782   -5.2575    3.3199 C.ar      1 UNL         0.0412 
      9 Cl         -5.4654   -6.2923    4.4365 Cl        1 UNL        -0.0835 
     10 C          -5.6173   -4.8134    2.1780 C.ar      1 UNL        -0.0397 
     11 N          -3.2317   -3.1015    0.0188 N.am      1 UNL        -0.2837 
     12 C          -1.7872   -3.3125    0.0027 C.3       1 UNL         0.2017 
     13 N          -1.2704   -4.6211   -0.0120 N.2       1 UNL        -0.2399 
     14 C           0.1063   -4.8849    0.0137 C.2       1 UNL         0.1035 
     15 N           1.0028   -3.8055   -0.0241 N.2       1 UNL        -0.2031 
     16 C           0.5664   -2.4812   -0.0109 C.ar      1 UNL         0.0619 
     17 C           1.5065   -1.3978   -0.0109 C.ar      1 UNL        -0.0383 
     18 C           1.0316   -0.0319    0.0062 C.ar      1 UNL        -0.0599 
     19 C          -0.3868    0.2418   -0.0201 C.ar      1 UNL        -0.0613 
     20 C          -1.3376   -0.8491    0.0094 C.ar      1 UNL        -0.0527 
     21 C          -0.8687   -2.2059    0.0002 C.ar      1 UNL         0.0250 
     22 H          -6.0840   -3.8373   -0.8466 H         1 UNL         0.0407 
     23 H          -5.4979   -2.4134    0.0463 H         1 UNL         0.0407 
     24 H          -8.0852   -2.9425    0.8143 H         1 UNL         0.0620 
     25 H          -9.2588   -3.7303    2.8410 H         1 UNL         0.0618 
     26 H          -8.1038   -5.2153    4.4509 H         1 UNL         0.0632 
     27 H          -4.5969   -5.1202    1.9973 H         1 UNL         0.0635 
     28 H          -3.4190   -2.1091    0.0269 H         1 UNL         0.1514 
     29 H           0.4643   -5.8811    0.0663 H         1 UNL         0.1015 
     30 H           2.5585   -1.5945   -0.0232 H         1 UNL         0.0637 
     31 H           1.7327    0.7758    0.0403 H         1 UNL         0.0618 
     32 H          -0.7353    1.2516   -0.0633 H         1 UNL         0.0618 
     33 H          -2.3862   -0.6377    0.0372 H         1 UNL         0.0622 
@<TRIPOS>BOND
     1    1    2 2    
     2    2   11 am   BACKBONE|DICT|INTERRES
     3    2    3 1    
     4    3   23 1    
     5    3    4 1    
     6    3   22 1    
     7    4    5 ar   
     8    4   10 ar   
     9    5   24 1    
    10    5    6 ar   
    11    6   25 1    
    12    6    7 ar   
    13    7    8 ar   
    14    7   26 1    
    15    8   10 ar   
    16    8    9 1    
    17   10   27 1    
    18   11   12 1    
    19   11   28 1    
    20   12   21 1    
    21   12   13 1    
    22   13   14 2    
    23   14   15 1    
    24   14   29 1    
    25   15   16 1    
    26   16   17 ar   
    27   16   21 ar   
    28   17   18 ar   
    29   17   30 1    
    30   18   31 1    
    31   18   19 ar   
    32   19   32 1    
    33   19   20 ar   
    34   20   33 1    
    35   20   21 ar   
@<TRIPOS>SUBSTRUCTURE
     1 UNL         1 GROUP             0       ****    0 ROOT    
@<TRIPOS>MOLECULE
JIN-POS-6dc588a4-8
31   33    1
SMALL
USER_CHARGES


@<TRIPOS>ATOM
      1 O          -3.8727   -5.2583    0.0120 O.2       1 UNL        -0.2751 
      2 C          -4.1548   -4.0637    0.0223 C.2       1 UNL         0.2227 
      3 C          -5.5457   -3.5023    0.0401 C.3       1 UNL         0.0495 
      4 C          -6.2614   -3.9785    1.2693 C.ar      1 UNL        -0.0372 
      5 C          -7.5754   -3.5914    1.5145 C.ar      1 UNL        -0.0580 
      6 C          -8.2375   -4.0352    2.6569 C.ar      1 UNL        -0.0601 
      7 C          -7.5914   -4.8701    3.5642 C.ar      1 UNL        -0.0434 
      8 C          -6.2782   -5.2575    3.3199 C.ar      1 UNL         0.0412 
      9 Cl         -5.4654   -6.2923    4.4365 Cl        1 UNL        -0.0835 
     10 C          -5.6173   -4.8134    2.1780 C.ar      1 UNL        -0.0397 
     11 N          -3.2317   -3.1015    0.0188 N.am      1 UNL        -0.2670 
     12 C          -1.7872   -3.3125    0.0027 C.2       1 UNL         0.1755 
     13 N          -1.2810   -4.5297   -0.0101 N.2       1 UNL        -0.0617 
     14 O           0.1150   -4.3961   -0.0235 O.3       1 UNL        -0.3528 
     15 C           0.4159   -3.0649   -0.0183 C.ar      1 UNL         0.1691 
     16 C           1.6895   -2.4860   -0.0278 C.ar      1 UNL        -0.0160 
     17 C           1.7457   -1.0899   -0.0197 C.ar      1 UNL        -0.0582 
     18 C           0.5798   -0.3188   -0.0029 C.ar      1 UNL        -0.0609 
     19 C          -0.6892   -0.9093    0.0064 C.ar      1 UNL        -0.0476 
     20 C          -0.7693   -2.3122   -0.0015 C.ar      1 UNL         0.0631 
     21 H          -6.0840   -3.8373   -0.8466 H         1 UNL         0.0407 
     22 H          -5.4979   -2.4134    0.0463 H         1 UNL         0.0407 
     23 H          -8.0852   -2.9425    0.8143 H         1 UNL         0.0620 
     24 H          -9.2588   -3.7303    2.8410 H         1 UNL         0.0618 
     25 H          -8.1038   -5.2153    4.4509 H         1 UNL         0.0632 
     26 H          -4.5969   -5.1202    1.9973 H         1 UNL         0.0635 
     27 H          -3.4190   -2.1091    0.0269 H         1 UNL         0.1563 
     28 H           2.5839   -3.0927   -0.0407 H         1 UNL         0.0655 
     29 H           2.7079   -0.5931   -0.0265 H         1 UNL         0.0619 
     30 H           0.6636    0.7607    0.0029 H         1 UNL         0.0618 
     31 H          -1.5826   -0.2987    0.0194 H         1 UNL         0.0626 
@<TRIPOS>BOND
     1    1    2 2    
     2    2   11 am   BACKBONE|DICT|INTERRES
     3    2    3 1    
     4    3   22 1    
     5    3    4 1    
     6    3   21 1    
     7    4    5 ar   
     8    4   10 ar   
     9    5   23 1    
    10    5    6 ar   
    11    6   24 1    
    12    6    7 ar   
    13    7    8 ar   
    14    7   25 1    
    15    8   10 ar   
    16    8    9 1    
    17   10   26 1    
    18   11   12 1    
    19   11   27 1    
    20   12   20 1    
    21   12   13 2    
    22   13   14 1    
    23   14   15 1    
    24   15   16 ar   
    25   15   20 ar   
    26   16   17 ar   
    27   16   28 1    
    28   17   29 1    
    29   17   18 ar   
    30   18   30 1    
    31   18   19 ar   
    32   19   31 1    
    33   19   20 ar   
@<TRIPOS>SUBSTRUCTURE
     1 UNL         1 GROUP             0       ****    0 ROOT    
@<TRIPOS>MOLECULE
MAT-POS-bb423b95-6
35   37    1
SMALL
USER_CHARGES


@<TRIPOS>ATOM
      1 O          -3.8729   -5.2586    0.0119 O.2       1 UNL        -0.2751 
      2 C          -4.1549   -4.0640    0.0222 C.2       1 UNL         0.2216 
      3 C          -5.5457   -3.5025    0.0400 C.3       1 UNL         0.0495 
      4 C          -6.2614   -3.9786    1.2692 C.ar      1 UNL        -0.0372 
      5 C          -7.5754   -3.5914    1.5145 C.ar      1 UNL        -0.0580 
      6 C          -8.2375   -4.0351    2.6569 C.ar      1 UNL        -0.0601 
      7 C          -7.5914   -4.8700    3.5642 C.ar      1 UNL        -0.0434 
      8 C          -6.2782   -5.2575    3.3199 C.ar      1 UNL         0.0412 
      9 Cl         -5.4654   -6.2923    4.4365 Cl        1 UNL        -0.0835 
     10 C          -5.6174   -4.8135    2.1779 C.ar      1 UNL        -0.0397 
     11 N          -3.2318   -3.1018    0.0186 N.am      1 UNL        -0.2836 
     12 C          -1.7872   -3.3129    0.0024 C.ar      1 UNL         0.0575 
     13 C          -1.2725   -4.5551   -0.0106 C.ar      1 UNL         0.0268 
     14 N           0.0670   -4.8355   -0.0261 N.pl3     1 UNL        -0.3268 
     15 C           1.0449   -3.8949   -0.0304 C.ar      1 UNL         0.2566 
     16 O           2.2302   -4.2351   -0.0447 O.2       1 UNL        -0.2672 
     17 C           0.5297   -2.4542   -0.0161 C.ar      1 UNL         0.0482 
     18 C           1.4477   -1.3989   -0.0191 C.ar      1 UNL        -0.0488 
     19 C           1.0012   -0.0808   -0.0063 C.ar      1 UNL        -0.0610 
     20 C          -0.3650    0.1830    0.0094 C.ar      1 UNL        -0.0611 
     21 C          -1.2873   -0.8601    0.0124 C.ar      1 UNL        -0.0520 
     22 C          -0.8502   -2.1806   -0.0002 C.ar      1 UNL         0.0099 
     23 H          -6.0841   -3.8374   -0.8466 H         1 UNL         0.0407 
     24 H          -5.4979   -2.4135    0.0462 H         1 UNL         0.0407 
     25 H          -8.0852   -2.9425    0.8143 H         1 UNL         0.0620 
     26 H          -9.2587   -3.7301    2.8411 H         1 UNL         0.0618 
     27 H          -8.1037   -5.2151    4.4510 H         1 UNL         0.0632 
     28 H          -4.5970   -5.1203    1.9972 H         1 UNL         0.0635 
     29 H          -3.4190   -2.1094    0.0267 H         1 UNL         0.1549 
     30 H          -1.8751   -5.4555   -0.0099 H         1 UNL         0.0827 
     31 H           0.4132   -5.7829   -0.0355 H         1 UNL         0.1684 
     32 H           2.5137   -1.5909   -0.0312 H         1 UNL         0.0625 
     33 H           1.7130    0.7340   -0.0086 H         1 UNL         0.0618 
     34 H          -0.7140    1.2069    0.0193 H         1 UNL         0.0618 
     35 H          -2.3454   -0.6353    0.0247 H         1 UNL         0.0624 
@<TRIPOS>BOND
     1    1    2 2    
     2    2   11 am   BACKBONE|DICT|INTERRES
     3    2    3 1    
     4    3   24 1    
     5    3    4 1    
     6    3   23 1    
     7    4    5 ar   
     8    4   10 ar   
     9    5   25 1    
    10    5    6 ar   
    11    6   26 1    
    12    6    7 ar   
    13    7    8 ar   
    14    7   27 1    
    15    8   10 ar   
    16    8    9 1    
    17   10   28 1    
    18   11   12 1    
    19   11   29 1    
    20   12   22 ar   
    21   12   13 ar   
    22   13   14 ar   
    23   13   30 1    
    24   14   15 ar   
    25   14   31 1    
    26   15   16 2    
    27   15   17 ar   
    28   17   18 ar   
    29   17   22 ar   
    30   18   32 1    
    31   18   19 ar   
    32   19   33 1    
    33   19   20 ar   
    34   20   34 1    
    35   20   21 ar   
    36   21   22 ar   
    37   21   35 1    
@<TRIPOS>SUBSTRUCTURE
     1 UNL         1 GROUP             0       ****    0 ROOT    
@<TRIPOS>MOLECULE
EDJ-MED-c8e7a002-11
32   34    1
SMALL
USER_CHARGES


@<TRIPOS>ATOM
      1 O          -3.8727   -5.2583    0.0120 O.2       1 UNL        -0.2751 
      2 C          -4.1548   -4.0637    0.0223 C.2       1 UNL         0.2226 
      3 C          -5.5457   -3.5023    0.0401 C.3       1 UNL         0.0495 
      4 C          -6.2614   -3.9785    1.2693 C.ar      1 UNL        -0.0372 
      5 C          -7.5754   -3.5914    1.5145 C.ar      1 UNL        -0.0580 
      6 C          -8.2375   -4.0352    2.6569 C.ar      1 UNL        -0.0601 
      7 C          -7.5914   -4.8701    3.5642 C.ar      1 UNL        -0.0434 
      8 C          -6.2782   -5.2575    3.3199 C.ar      1 UNL         0.0412 
      9 Cl         -5.4654   -6.2923    4.4365 Cl        1 UNL        -0.0835 
     10 C          -5.6173   -4.8134    2.1780 C.ar      1 UNL        -0.0397 
     11 N          -3.2317   -3.1015    0.0188 N.am      1 UNL        -0.2682 
     12 C          -1.7872   -3.3125    0.0027 C.ar      1 UNL         0.1544 
     13 N          -1.2749   -4.5183   -0.0100 N.2       1 UNL        -0.1574 
     14 N           0.0675   -4.3716   -0.0229 N.pl3     1 UNL        -0.2752 
     15 C           0.4423   -3.0423   -0.0185 C.ar      1 UNL         0.0676 
     16 C           1.6900   -2.4125   -0.0273 C.ar      1 UNL        -0.0362 
     17 C           1.7020   -1.0163   -0.0188 C.ar      1 UNL        -0.0597 
     18 C           0.5223   -0.2774   -0.0021 C.ar      1 UNL        -0.0610 
     19 C          -0.7204   -0.9105    0.0067 C.ar      1 UNL        -0.0492 
     20 C          -0.7688   -2.3117   -0.0015 C.ar      1 UNL         0.0415 
     21 H          -6.0840   -3.8373   -0.8466 H         1 UNL         0.0407 
     22 H          -5.4979   -2.4134    0.0463 H         1 UNL         0.0407 
     23 H          -8.0852   -2.9425    0.8143 H         1 UNL         0.0620 
     24 H          -9.2588   -3.7303    2.8410 H         1 UNL         0.0618 
     25 H          -8.1038   -5.2153    4.4509 H         1 UNL         0.0632 
     26 H          -4.5969   -5.1202    1.9973 H         1 UNL         0.0635 
     27 H          -3.4190   -2.1091    0.0269 H         1 UNL         0.1563 
     28 H           0.6882   -5.1782   -0.0343 H         1 UNL         0.1890 
     29 H           2.6126   -2.9764   -0.0403 H         1 UNL         0.0639 
     30 H           2.6499   -0.4932   -0.0252 H         1 UNL         0.0618 
     31 H           0.5732    0.8040    0.0041 H         1 UNL         0.0618 
     32 H          -1.6315   -0.3281    0.0197 H         1 UNL         0.0625 
@<TRIPOS>BOND
     1    1    2 2    
     2    2   11 am   BACKBONE|DICT|INTERRES
     3    2    3 1    
     4    3   22 1    
     5    3    4 1    
     6    3   21 1    
     7    4    5 ar   
     8    4   10 ar   
     9    5   23 1    
    10    5    6 ar   
    11    6   24 1    
    12    6    7 ar   
    13    7    8 ar   
    14    7   25 1    
    15    8   10 ar   
    16    8    9 1    
    17   10   26 1    
    18   11   12 1    
    19   11   27 1    
    20   12   20 ar   
    21   12   13 ar   
    22   13   14 ar   
    23   14   15 ar   
    24   14   28 1    
    25   15   16 ar   
    26   15   20 ar   
    27   16   17 ar   
    28   16   29 1    
    29   17   30 1    
    30   17   18 ar   
    31   18   31 1    
    32   18   19 ar   
    33   19   32 1    
    34   19   20 ar   
@<TRIPOS>SUBSTRUCTURE
     1 UNL         1 GROUP             0       ****    0 ROOT    
@<TRIPOS>MOLECULE
PET-UNK-e44ffd04-1
31   33    1
SMALL
USER_CHARGES


@<TRIPOS>ATOM
      1 O          -3.8727   -5.2583    0.0120 O.2       1 UNL        -0.2750 
      2 C          -4.1548   -4.0637    0.0223 C.2       1 UNL         0.2237 
      3 C          -5.5457   -3.5023    0.0401 C.3       1 UNL         0.0495 
      4 C          -6.2614   -3.9785    1.2693 C.ar      1 UNL        -0.0372 
      5 C          -7.5754   -3.5914    1.5145 C.ar      1 UNL        -0.0580 
      6 C          -8.2375   -4.0352    2.6569 C.ar      1 UNL        -0.0601 
      7 C          -7.5914   -4.8701    3.5642 C.ar      1 UNL        -0.0434 
      8 C          -6.2782   -5.2575    3.3199 C.ar      1 UNL         0.0412 
      9 Cl         -5.4654   -6.2923    4.4365 Cl        1 UNL        -0.0835 
     10 C          -5.6173   -4.8134    2.1780 C.ar      1 UNL        -0.0397 
     11 N          -3.2317   -3.1015    0.0188 N.am      1 UNL        -0.2540 
     12 C          -1.7872   -3.3125    0.0027 C.ar      1 UNL         0.2276 
     13 N          -1.1544   -4.4691   -0.0110 N.2       1 UNL        -0.1123 
     14 N           0.2106   -4.2311   -0.0235 N.2       1 UNL        -0.1278 
     15 C           0.3735   -2.8836   -0.0168 C.ar      1 UNL         0.1623 
     16 C           1.5156   -2.0676   -0.0234 C.ar      1 UNL        -0.0169 
     17 C           1.3663   -0.6776   -0.0132 C.ar      1 UNL        -0.0569 
     18 C           0.1003   -0.0980    0.0033 C.ar      1 UNL        -0.0450 
     19 C          -1.0329   -0.9083    0.0099 C.ar      1 UNL         0.0144 
     20 N          -0.8875   -2.2708   -0.0000 N.pl3     1 UNL        -0.2705 
     21 H          -6.0840   -3.8373   -0.8466 H         1 UNL         0.0407 
     22 H          -5.4979   -2.4134    0.0463 H         1 UNL         0.0407 
     23 H          -8.0852   -2.9425    0.8143 H         1 UNL         0.0620 
     24 H          -9.2588   -3.7303    2.8410 H         1 UNL         0.0618 
     25 H          -8.1038   -5.2153    4.4509 H         1 UNL         0.0632 
     26 H          -4.5969   -5.1202    1.9973 H         1 UNL         0.0635 
     27 H          -3.4190   -2.1091    0.0269 H         1 UNL         0.1577 
     28 H           2.4993   -2.5136   -0.0363 H         1 UNL         0.0655 
     29 H           2.2429   -0.0416   -0.0183 H         1 UNL         0.0619 
     30 H          -0.0004    0.9803    0.0111 H         1 UNL         0.0632 
     31 H          -2.0430   -0.5210    0.0227 H         1 UNL         0.0814 
@<TRIPOS>BOND
     1    1    2 2    
     2    2   11 am   BACKBONE|DICT|INTERRES
     3    2    3 1    
     4    3   22 1    
     5    3    4 1    
     6    3   21 1    
     7    4    5 ar   
     8    4   10 ar   
     9    5   23 1    
    10    5    6 ar   
    11    6   24 1    
    12    6    7 ar   
    13    7    8 ar   
    14    7   25 1    
    15    8   10 ar   
    16    8    9 1    
    17   10   26 1    
    18   11   27 1    
    19   11   12 1    
    20   12   20 ar   
    21   12   13 ar   
    22   13   14 ar   
    23   14   15 ar   
    24   15   16 ar   
    25   15   20 ar   
    26   16   17 ar   
    27   16   28 1    
    28   17   29 1    
    29   17   18 ar   
    30   18   30 1    
    31   18   19 ar   
    32   19   31 1    
    33   19   20 ar   
@<TRIPOS>SUBSTRUCTURE
     1 UNL         1 GROUP             0       ****    0 ROOT    
@<TRIPOS>MOLECULE
MAT-POS-bb423b95-6
35   37    1
SMALL
USER_CHARGES


@<TRIPOS>ATOM
      1 O          -3.8729   -5.2586    0.0119 O.2       1 UNL        -0.2751 
      2 C          -4.1549   -4.0640    0.0222 C.2       1 UNL         0.2216 
      3 C          -5.5457   -3.5025    0.0400 C.3       1 UNL         0.0495 
      4 C          -6.2614   -3.9786    1.2692 C.ar      1 UNL        -0.0372 
      5 C          -7.5754   -3.5914    1.5145 C.ar      1 UNL        -0.0580 
      6 C          -8.2375   -4.0351    2.6569 C.ar      1 UNL        -0.0601 
      7 C          -7.5914   -4.8700    3.5642 C.ar      1 UNL        -0.0434 
      8 C          -6.2782   -5.2575    3.3199 C.ar      1 UNL         0.0412 
      9 Cl         -5.4654   -6.2923    4.4365 Cl        1 UNL        -0.0835 
     10 C          -5.6174   -4.8135    2.1779 C.ar      1 UNL        -0.0397 
     11 N          -3.2318   -3.1018    0.0186 N.am      1 UNL        -0.2836 
     12 C          -1.7872   -3.3129    0.0024 C.ar      1 UNL         0.0575 
     13 C          -1.2725   -4.5551   -0.0106 C.ar      1 UNL         0.0268 
     14 N           0.0670   -4.8355   -0.0261 N.pl3     1 UNL        -0.3268 
     15 C           1.0449   -3.8949   -0.0304 C.ar      1 UNL         0.2566 
     16 O           2.2302   -4.2351   -0.0447 O.2       1 UNL        -0.2672 
     17 C           0.5297   -2.4542   -0.0161 C.ar      1 UNL         0.0482 
     18 C           1.4477   -1.3989   -0.0191 C.ar      1 UNL        -0.0488 
     19 C           1.0012   -0.0808   -0.0063 C.ar      1 UNL        -0.0610 
     20 C          -0.3650    0.1830    0.0094 C.ar      1 UNL        -0.0611 
     21 C          -1.2873   -0.8601    0.0124 C.ar      1 UNL        -0.0520 
     22 C          -0.8502   -2.1806   -0.0002 C.ar      1 UNL         0.0099 
     23 H          -6.0841   -3.8374   -0.8466 H         1 UNL         0.0407 
     24 H          -5.4979   -2.4135    0.0462 H         1 UNL         0.0407 
     25 H          -8.0852   -2.9425    0.8143 H         1 UNL         0.0620 
     26 H          -9.2587   -3.7301    2.8411 H         1 UNL         0.0618 
     27 H          -8.1037   -5.2151    4.4510 H         1 UNL         0.0632 
     28 H          -4.5970   -5.1203    1.9972 H         1 UNL         0.0635 
     29 H          -3.4190   -2.1094    0.0267 H         1 UNL         0.1549 
     30 H          -1.8751   -5.4555   -0.0099 H         1 UNL         0.0827 
     31 H           0.4132   -5.7829   -0.0355 H         1 UNL         0.1684 
     32 H           2.5137   -1.5909   -0.0312 H         1 UNL         0.0625 
     33 H           1.7130    0.7340   -0.0086 H         1 UNL         0.0618 
     34 H          -0.7140    1.2069    0.0193 H         1 UNL         0.0618 
     35 H          -2.3454   -0.6353    0.0247 H         1 UNL         0.0624 
@<TRIPOS>BOND
     1    1    2 2    
     2    2   11 am   BACKBONE|DICT|INTERRES
     3    2    3 1    
     4    3   24 1    
     5    3    4 1    
     6    3   23 1    
     7    4    5 ar   
     8    4   10 ar   
     9    5   25 1    
    10    5    6 ar   
    11    6   26 1    
    12    6    7 ar   
    13    7    8 ar   
    14    7   27 1    
    15    8   10 ar   
    16    8    9 1    
    17   10   28 1    
    18   11   12 1    
    19   11   29 1    
    20   12   22 ar   
    21   12   13 ar   
    22   13   14 ar   
    23   13   30 1    
    24   14   15 ar   
    25   14   31 1    
    26   15   16 2    
    27   15   17 ar   
    28   17   18 ar   
    29   17   22 ar   
    30   18   32 1    
    31   18   19 ar   
    32   19   33 1    
    33   19   20 ar   
    34   20   34 1    
    35   20   21 ar   
    36   21   22 ar   
    37   21   35 1    
@<TRIPOS>SUBSTRUCTURE
     1 UNL         1 GROUP             0       ****    0 ROOT    
@<TRIPOS>MOLECULE
EDJ-MED-c8e7a002-11
32   34    1
SMALL
USER_CHARGES


@<TRIPOS>ATOM
      1 O          -3.8727   -5.2583    0.0120 O.2       1 UNL        -0.2751 
      2 C          -4.1548   -4.0637    0.0223 C.2       1 UNL         0.2226 
      3 C          -5.5457   -3.5023    0.0401 C.3       1 UNL         0.0495 
      4 C          -6.2614   -3.9785    1.2693 C.ar      1 UNL        -0.0372 
      5 C          -7.5754   -3.5914    1.5145 C.ar      1 UNL        -0.0580 
      6 C          -8.2375   -4.0352    2.6569 C.ar      1 UNL        -0.0601 
      7 C          -7.5914   -4.8701    3.5642 C.ar      1 UNL        -0.0434 
      8 C          -6.2782   -5.2575    3.3199 C.ar      1 UNL         0.0412 
      9 Cl         -5.4654   -6.2923    4.4365 Cl        1 UNL        -0.0835 
     10 C          -5.6173   -4.8134    2.1780 C.ar      1 UNL        -0.0397 
     11 N          -3.2317   -3.1015    0.0188 N.am      1 UNL        -0.2682 
     12 C          -1.7872   -3.3125    0.0027 C.ar      1 UNL         0.1544 
     13 N          -1.2749   -4.5183   -0.0100 N.2       1 UNL        -0.1574 
     14 N           0.0675   -4.3716   -0.0229 N.pl3     1 UNL        -0.2752 
     15 C           0.4423   -3.0423   -0.0185 C.ar      1 UNL         0.0676 
     16 C           1.6900   -2.4125   -0.0273 C.ar      1 UNL        -0.0362 
     17 C           1.7020   -1.0163   -0.0188 C.ar      1 UNL        -0.0597 
     18 C           0.5223   -0.2774   -0.0021 C.ar      1 UNL        -0.0610 
     19 C          -0.7204   -0.9105    0.0067 C.ar      1 UNL        -0.0492 
     20 C          -0.7688   -2.3117   -0.0015 C.ar      1 UNL         0.0415 
     21 H          -6.0840   -3.8373   -0.8466 H         1 UNL         0.0407 
     22 H          -5.4979   -2.4134    0.0463 H         1 UNL         0.0407 
     23 H          -8.0852   -2.9425    0.8143 H         1 UNL         0.0620 
     24 H          -9.2588   -3.7303    2.8410 H         1 UNL         0.0618 
     25 H          -8.1038   -5.2153    4.4509 H         1 UNL         0.0632 
     26 H          -4.5969   -5.1202    1.9973 H         1 UNL         0.0635 
     27 H          -3.4190   -2.1091    0.0269 H         1 UNL         0.1563 
     28 H           0.6882   -5.1782   -0.0343 H         1 UNL         0.1890 
     29 H           2.6126   -2.9764   -0.0403 H         1 UNL         0.0639 
     30 H           2.6499   -0.4932   -0.0252 H         1 UNL         0.0618 
     31 H           0.5732    0.8040    0.0041 H         1 UNL         0.0618 
     32 H          -1.6315   -0.3281    0.0197 H         1 UNL         0.0625 
@<TRIPOS>BOND
     1    1    2 2    
     2    2   11 am   BACKBONE|DICT|INTERRES
     3    2    3 1    
     4    3   22 1    
     5    3    4 1    
     6    3   21 1    
     7    4    5 ar   
     8    4   10 ar   
     9    5   23 1    
    10    5    6 ar   
    11    6   24 1    
    12    6    7 ar   
    13    7    8 ar   
    14    7   25 1    
    15    8   10 ar   
    16    8    9 1    
    17   10   26 1    
    18   11   12 1    
    19   11   27 1    
    20   12   20 ar   
    21   12   13 ar   
    22   13   14 ar   
    23   14   15 ar   
    24   14   28 1    
    25   15   16 ar   
    26   15   20 ar   
    27   16   17 ar   
    28   16   29 1    
    29   17   30 1    
    30   17   18 ar   
    31   18   31 1    
    32   18   19 ar   
    33   19   32 1    
    34   19   20 ar   
@<TRIPOS>SUBSTRUCTURE
     1 UNL         1 GROUP             0       ****    0 ROOT    
@<TRIPOS>MOLECULE
EDJ-MED-c8e7a002-12
32   34    1
SMALL
USER_CHARGES


@<TRIPOS>ATOM
      1 O          -3.8727   -5.2583    0.0120 O.2       1 UNL        -0.2751 
      2 C          -4.1548   -4.0637    0.0223 C.2       1 UNL         0.2216 
      3 C          -5.5457   -3.5023    0.0401 C.3       1 UNL         0.0495 
      4 C          -6.2614   -3.9785    1.2693 C.ar      1 UNL        -0.0372 
      5 C          -7.5754   -3.5914    1.5145 C.ar      1 UNL        -0.0580 
      6 C          -8.2375   -4.0352    2.6569 C.ar      1 UNL        -0.0601 
      7 C          -7.5914   -4.8701    3.5642 C.ar      1 UNL        -0.0434 
      8 C          -6.2782   -5.2575    3.3199 C.ar      1 UNL         0.0412 
      9 Cl         -5.4654   -6.2923    4.4365 Cl        1 UNL        -0.0835 
     10 C          -5.6173   -4.8134    2.1780 C.ar      1 UNL        -0.0397 
     11 N          -3.2317   -3.1015    0.0188 N.am      1 UNL        -0.2835 
     12 C          -1.7872   -3.3125    0.0027 C.ar      1 UNL         0.0590 
     13 C          -1.2500   -4.6013   -0.0108 C.ar      1 UNL        -0.0384 
     14 C           0.1251   -4.8176   -0.0263 C.ar      1 UNL        -0.0593 
     15 C           1.0195   -3.7474   -0.0288 C.ar      1 UNL        -0.0510 
     16 C           0.5138   -2.4398   -0.0155 C.ar      1 UNL         0.0213 
     17 C           1.0574   -1.1194   -0.0128 C.ar      1 UNL         0.0569 
     18 N           0.1128   -0.2117    0.0025 N.2       1 UNL        -0.1811 
     19 N          -1.0642   -0.8737    0.0105 N.pl3     1 UNL        -0.2752 
     20 C          -0.8869   -2.2434    0.0001 C.ar      1 UNL         0.0869 
     21 H          -6.0840   -3.8373   -0.8466 H         1 UNL         0.0407 
     22 H          -5.4979   -2.4134    0.0463 H         1 UNL         0.0407 
     23 H          -8.0852   -2.9425    0.8143 H         1 UNL         0.0620 
     24 H          -9.2588   -3.7303    2.8410 H         1 UNL         0.0618 
     25 H          -8.1038   -5.2153    4.4509 H         1 UNL         0.0632 
     26 H          -4.5969   -5.1202    1.9973 H         1 UNL         0.0635 
     27 H          -3.4190   -2.1091    0.0269 H         1 UNL         0.1549 
     28 H          -1.9164   -5.4546   -0.0093 H         1 UNL         0.0637 
     29 H           0.5029   -5.8320   -0.0364 H         1 UNL         0.0618 
     30 H           2.0861   -3.9252   -0.0408 H         1 UNL         0.0625 
     31 H           2.1039   -0.8427   -0.0218 H         1 UNL         0.0854 
     32 H          -1.9518   -0.3757    0.0227 H         1 UNL         0.1890 
@<TRIPOS>BOND
     1    1    2 2    
     2    2   11 am   BACKBONE|DICT|INTERRES
     3    2    3 1    
     4    3   22 1    
     5    3    4 1    
     6    3   21 1    
     7    4    5 ar   
     8    4   10 ar   
     9    5   23 1    
    10    5    6 ar   
    11    6   24 1    
    12    6    7 ar   
    13    7    8 ar   
    14    7   25 1    
    15    8   10 ar   
    16    8    9 1    
    17   10   26 1    
    18   11   12 1    
    19   11   27 1    
    20   12   20 ar   
    21   12   13 ar   
    22   13   14 ar   
    23   13   28 1    
    24   14   15 ar   
    25   14   29 1    
    26   15   30 1    
    27   15   16 ar   
    28   16   17 ar   
    29   16   20 ar   
    30   17   31 1    
    31   17   18 ar   
    32   18   19 ar   
    33   19   20 ar   
    34   19   32 1    
@<TRIPOS>SUBSTRUCTURE
     1 UNL         1 GROUP             0       ****    0 ROOT    
@<TRIPOS>MOLECULE
EDJ-MED-c8e7a002-14
31   33    1
SMALL
USER_CHARGES


@<TRIPOS>ATOM
      1 O          -3.8727   -5.2583    0.0120 O.2       1 UNL        -0.2751 
      2 C          -4.1548   -4.0637    0.0223 C.2       1 UNL         0.2226 
      3 C          -5.5457   -3.5023    0.0401 C.3       1 UNL         0.0495 
      4 C          -6.2614   -3.9785    1.2693 C.ar      1 UNL        -0.0372 
      5 C          -7.5754   -3.5914    1.5145 C.ar      1 UNL        -0.0580 
      6 C          -8.2375   -4.0352    2.6569 C.ar      1 UNL        -0.0601 
      7 C          -7.5914   -4.8701    3.5642 C.ar      1 UNL        -0.0434 
      8 C          -6.2782   -5.2575    3.3199 C.ar      1 UNL         0.0412 
      9 Cl         -5.4654   -6.2923    4.4365 Cl        1 UNL        -0.0835 
     10 C          -5.6173   -4.8134    2.1780 C.ar      1 UNL        -0.0397 
     11 N          -3.2317   -3.1015    0.0188 N.am      1 UNL        -0.2688 
     12 C          -1.7872   -3.3125    0.0027 C.ar      1 UNL         0.1469 
     13 N          -1.2581   -4.5136   -0.4156 N.pl3     1 UNL        -0.2616 
     14 N           0.0971   -4.5862   -0.3847 N.2       1 UNL        -0.1706 
     15 C           0.4602   -3.3512    0.0839 C.ar      1 UNL         0.1127 
     16 C           1.7451   -2.8437    0.3247 C.ar      1 UNL        -0.0310 
     17 C           1.8379   -1.5346    0.8091 C.ar      1 UNL        -0.0415 
     18 C           0.6745   -0.7934    1.0317 C.ar      1 UNL         0.0285 
     19 N          -0.5850   -1.2608    0.8068 N.ar      1 UNL        -0.2499 
     20 C          -0.6709   -2.5125    0.3437 C.ar      1 UNL         0.1302 
     21 H          -6.0840   -3.8373   -0.8466 H         1 UNL         0.0407 
     22 H          -5.4979   -2.4134    0.0463 H         1 UNL         0.0407 
     23 H          -8.0852   -2.9425    0.8143 H         1 UNL         0.0620 
     24 H          -9.2588   -3.7303    2.8410 H         1 UNL         0.0618 
     25 H          -8.1038   -5.2153    4.4509 H         1 UNL         0.0632 
     26 H          -4.5969   -5.1202    1.9973 H         1 UNL         0.0635 
     27 H          -3.4190   -2.1091    0.0269 H         1 UNL         0.1563 
     28 H          -1.8345   -5.2961   -0.7273 H         1 UNL         0.1903 
     29 H           2.6253   -3.4434    0.1420 H         1 UNL         0.0640 
     30 H           2.8050   -1.0940    1.0119 H         1 UNL         0.0633 
     31 H           0.7472    0.2202    1.4068 H         1 UNL         0.0830 
@<TRIPOS>BOND
     1    1    2 2    
     2    2   11 am   BACKBONE|DICT|INTERRES
     3    2    3 1    
     4    3   22 1    
     5    3    4 1    
     6    3   21 1    
     7    4    5 ar   
     8    4   10 ar   
     9    5   23 1    
    10    5    6 ar   
    11    6   24 1    
    12    6    7 ar   
    13    7    8 ar   
    14    7   25 1    
    15    8   10 ar   
    16    8    9 1    
    17   10   26 1    
    18   11   12 1    
    19   11   27 1    
    20   12   13 ar   
    21   12   20 ar   
    22   13   14 ar   
    23   13   28 1    
    24   14   15 ar   
    25   15   16 ar   
    26   15   20 ar   
    27   16   29 1    
    28   16   17 ar   
    29   17   30 1    
    30   17   18 ar   
    31   18   31 1    
    32   18   19 ar   
    33   19   20 ar   
@<TRIPOS>SUBSTRUCTURE
     1 UNL         1 GROUP             0       ****    0 ROOT    
@<TRIPOS>MOLECULE
MAT-POS-f7918075-5
33   35    1
SMALL
USER_CHARGES


@<TRIPOS>ATOM
      1 O          -3.8727   -5.2583    0.0120 O.2       1 UNL        -0.2751 
      2 C          -4.1548   -4.0637    0.0223 C.2       1 UNL         0.2216 
      3 C          -5.5457   -3.5023    0.0401 C.3       1 UNL         0.0495 
      4 C          -6.2614   -3.9785    1.2693 C.ar      1 UNL        -0.0372 
      5 C          -7.5754   -3.5914    1.5145 C.ar      1 UNL        -0.0580 
      6 C          -8.2375   -4.0352    2.6569 C.ar      1 UNL        -0.0601 
      7 C          -7.5914   -4.8701    3.5642 C.ar      1 UNL        -0.0434 
      8 C          -6.2782   -5.2575    3.3199 C.ar      1 UNL         0.0412 
      9 Cl         -5.4654   -6.2923    4.4365 Cl        1 UNL        -0.0835 
     10 C          -5.6173   -4.8134    2.1780 C.ar      1 UNL        -0.0397 
     11 N          -3.2317   -3.1015    0.0188 N.am      1 UNL        -0.2835 
     12 C          -1.7872   -3.3125    0.0027 C.ar      1 UNL         0.0609 
     13 C          -1.2512   -4.6014   -0.0108 C.ar      1 UNL         0.0494 
     14 N           0.0825   -4.8564   -0.0261 N.ar      1 UNL        -0.2608 
     15 C           0.9271   -3.7933   -0.0281 C.ar      1 UNL         0.0355 
     16 C           0.5072   -2.4423   -0.0154 C.ar      1 UNL         0.0049 
     17 C           1.3945   -1.3348   -0.0176 C.ar      1 UNL        -0.0344 
     18 C           0.8595   -0.0461   -0.0041 C.ar      1 UNL         0.0282 
     19 N          -0.4739    0.2071    0.0111 N.ar      1 UNL        -0.2626 
     20 C          -1.3196   -0.8542    0.0132 C.ar      1 UNL         0.0371 
     21 C          -0.8996   -2.2045    0.0005 C.ar      1 UNL         0.0243 
     22 H          -6.0840   -3.8373   -0.8466 H         1 UNL         0.0407 
     23 H          -5.4979   -2.4134    0.0463 H         1 UNL         0.0407 
     24 H          -8.0852   -2.9425    0.8143 H         1 UNL         0.0620 
     25 H          -9.2588   -3.7303    2.8410 H         1 UNL         0.0618 
     26 H          -8.1038   -5.2153    4.4509 H         1 UNL         0.0632 
     27 H          -4.5969   -5.1202    1.9973 H         1 UNL         0.0635 
     28 H          -3.4190   -2.1091    0.0269 H         1 UNL         0.1549 
     29 H          -1.9101   -5.4615   -0.0094 H         1 UNL         0.0849 
     30 H           1.9868   -4.0132   -0.0403 H         1 UNL         0.0836 
     31 H           2.4640   -1.4926   -0.0296 H         1 UNL         0.0639 
     32 H           1.5171    0.8154   -0.0055 H         1 UNL         0.0830 
     33 H          -2.3792   -0.6316    0.0254 H         1 UNL         0.0836 
@<TRIPOS>BOND
     1    1    2 2    
     2    2   11 am   BACKBONE|DICT|INTERRES
     3    2    3 1    
     4    3   23 1    
     5    3    4 1    
     6    3   22 1    
     7    4    5 ar   
     8    4   10 ar   
     9    5   24 1    
    10    5    6 ar   
    11    6   25 1    
    12    6    7 ar   
    13    7    8 ar   
    14    7   26 1    
    15    8   10 ar   
    16    8    9 1    
    17   10   27 1    
    18   11   12 1    
    19   11   28 1    
    20   12   21 ar   
    21   12   13 ar   
    22   13   14 ar   
    23   13   29 1    
    24   14   15 ar   
    25   15   30 1    
    26   15   16 ar   
    27   16   17 ar   
    28   16   21 ar   
    29   17   31 1    
    30   17   18 ar   
    31   18   32 1    
    32   18   19 ar   
    33   19   20 ar   
    34   20   21 ar   
    35   20   33 1    
@<TRIPOS>SUBSTRUCTURE
     1 UNL         1 GROUP             0       ****    0 ROOT    
@<TRIPOS>MOLECULE
EDJ-MED-c8e7a002-16
31   33    1
SMALL
USER_CHARGES


@<TRIPOS>ATOM
      1 O          -3.8727   -5.2583    0.0120 O.2       1 UNL        -0.2751 
      2 C          -4.1548   -4.0637    0.0223 C.2       1 UNL         0.2226 
      3 C          -5.5457   -3.5023    0.0401 C.3       1 UNL         0.0495 
      4 C          -6.2614   -3.9785    1.2693 C.ar      1 UNL        -0.0372 
      5 C          -7.5754   -3.5914    1.5145 C.ar      1 UNL        -0.0580 
      6 C          -8.2375   -4.0352    2.6569 C.ar      1 UNL        -0.0601 
      7 C          -7.5914   -4.8701    3.5642 C.ar      1 UNL        -0.0434 
      8 C          -6.2782   -5.2575    3.3199 C.ar      1 UNL         0.0412 
      9 Cl         -5.4654   -6.2923    4.4365 Cl        1 UNL        -0.0835 
     10 C          -5.6173   -4.8134    2.1780 C.ar      1 UNL        -0.0397 
     11 N          -3.2317   -3.1015    0.0188 N.am      1 UNL        -0.2682 
     12 C          -1.7872   -3.3125    0.0027 C.ar      1 UNL         0.1558 
     13 N          -1.2731   -4.5181   -0.0101 N.2       1 UNL        -0.1574 
     14 N           0.0710   -4.3738   -0.0229 N.pl3     1 UNL        -0.2751 
     15 C           0.4482   -3.0457   -0.0186 C.ar      1 UNL         0.0705 
     16 C           1.6930   -2.4077   -0.0273 C.ar      1 UNL        -0.0181 
     17 C           1.6621   -1.0115   -0.0183 C.ar      1 UNL         0.0296 
     18 N           0.5198   -0.2755   -0.0021 N.ar      1 UNL        -0.2624 
     19 C          -0.6801   -0.9175    0.0062 C.ar      1 UNL         0.0401 
     20 C          -0.7638   -2.3170   -0.0016 C.ar      1 UNL         0.0596 
     21 H          -6.0840   -3.8373   -0.8466 H         1 UNL         0.0407 
     22 H          -5.4979   -2.4134    0.0463 H         1 UNL         0.0407 
     23 H          -8.0852   -2.9425    0.8143 H         1 UNL         0.0620 
     24 H          -9.2588   -3.7303    2.8410 H         1 UNL         0.0618 
     25 H          -8.1038   -5.2153    4.4509 H         1 UNL         0.0632 
     26 H          -4.5969   -5.1202    1.9973 H         1 UNL         0.0635 
     27 H          -3.4190   -2.1091    0.0269 H         1 UNL         0.1563 
     28 H           0.6903   -5.1810   -0.0343 H         1 UNL         0.1890 
     29 H           2.6262   -2.9523   -0.0403 H         1 UNL         0.0654 
     30 H           2.5924   -0.4544   -0.0244 H         1 UNL         0.0830 
     31 H          -1.5750   -0.3083    0.0192 H         1 UNL         0.0837 
@<TRIPOS>BOND
     1    1    2 2    
     2    2   11 am   BACKBONE|DICT|INTERRES
     3    2    3 1    
     4    3   22 1    
     5    3    4 1    
     6    3   21 1    
     7    4    5 ar   
     8    4   10 ar   
     9    5   23 1    
    10    5    6 ar   
    11    6   24 1    
    12    6    7 ar   
    13    7    8 ar   
    14    7   25 1    
    15    8   10 ar   
    16    8    9 1    
    17   10   26 1    
    18   11   12 1    
    19   11   27 1    
    20   12   20 ar   
    21   12   13 ar   
    22   13   14 ar   
    23   14   15 ar   
    24   14   28 1    
    25   15   16 ar   
    26   15   20 ar   
    27   16   17 ar   
    28   16   29 1    
    29   17   30 1    
    30   17   18 ar   
    31   18   19 ar   
    32   19   31 1    
    33   19   20 ar   
@<TRIPOS>SUBSTRUCTURE
     1 UNL         1 GROUP             0       ****    0 ROOT    
@<TRIPOS>MOLECULE
PET-UNK-e44ffd04-1
31   33    1
SMALL
USER_CHARGES


@<TRIPOS>ATOM
      1 O          -3.8727   -5.2583    0.0120 O.2       1 UNL        -0.2750 
      2 C          -4.1548   -4.0637    0.0223 C.2       1 UNL         0.2237 
      3 C          -5.5457   -3.5023    0.0401 C.3       1 UNL         0.0495 
      4 C          -6.2614   -3.9785    1.2693 C.ar      1 UNL        -0.0372 
      5 C          -7.5754   -3.5914    1.5145 C.ar      1 UNL        -0.0580 
      6 C          -8.2375   -4.0352    2.6569 C.ar      1 UNL        -0.0601 
      7 C          -7.5914   -4.8701    3.5642 C.ar      1 UNL        -0.0434 
      8 C          -6.2782   -5.2575    3.3200 C.ar      1 UNL         0.0412 
      9 Cl         -5.4654   -6.2923    4.4365 Cl        1 UNL        -0.0835 
     10 C          -5.6173   -4.8135    2.1780 C.ar      1 UNL        -0.0397 
     11 N          -3.2317   -3.1015    0.0188 N.am      1 UNL        -0.2540 
     12 C          -1.7872   -3.3125    0.0027 C.ar      1 UNL         0.2276 
     13 N          -1.1544   -4.4691   -0.0110 N.2       1 UNL        -0.1123 
     14 N           0.2106   -4.2311   -0.0235 N.2       1 UNL        -0.1278 
     15 C           0.3735   -2.8836   -0.0168 C.ar      1 UNL         0.1623 
     16 C           1.5156   -2.0676   -0.0234 C.ar      1 UNL        -0.0169 
     17 C           1.3663   -0.6776   -0.0132 C.ar      1 UNL        -0.0569 
     18 C           0.1003   -0.0980    0.0033 C.ar      1 UNL        -0.0450 
     19 C          -1.0329   -0.9083    0.0099 C.ar      1 UNL         0.0144 
     20 N          -0.8875   -2.2708   -0.0000 N.pl3     1 UNL        -0.2705 
     21 H          -6.0840   -3.8373   -0.8466 H         1 UNL         0.0407 
     22 H          -5.4979   -2.4134    0.0463 H         1 UNL         0.0407 
     23 H          -8.0852   -2.9425    0.8143 H         1 UNL         0.0620 
     24 H          -9.2588   -3.7303    2.8410 H         1 UNL         0.0618 
     25 H          -8.1038   -5.2153    4.4509 H         1 UNL         0.0632 
     26 H          -4.5969   -5.1202    1.9973 H         1 UNL         0.0635 
     27 H          -3.4190   -2.1091    0.0269 H         1 UNL         0.1577 
     28 H           2.4993   -2.5136   -0.0363 H         1 UNL         0.0655 
     29 H           2.2429   -0.0416   -0.0183 H         1 UNL         0.0619 
     30 H          -0.0004    0.9803    0.0111 H         1 UNL         0.0632 
     31 H          -2.0430   -0.5210    0.0227 H         1 UNL         0.0814 
@<TRIPOS>BOND
     1    1    2 2    
     2    2   11 am   BACKBONE|DICT|INTERRES
     3    2    3 1    
     4    3   22 1    
     5    3    4 1    
     6    3   21 1    
     7    4   10 ar   
     8    4    5 ar   
     9    5   23 1    
    10    5    6 ar   
    11    6    7 ar   
    12    6   24 1    
    13    7    8 ar   
    14    7   25 1    
    15    8   10 ar   
    16    8    9 1    
    17   10   26 1    
    18   11   27 1    
    19   11   12 1    
    20   12   20 ar   
    21   12   13 ar   
    22   13   14 ar   
    23   14   15 ar   
    24   15   16 ar   
    25   15   20 ar   
    26   16   17 ar   
    27   16   28 1    
    28   17   29 1    
    29   17   18 ar   
    30   18   30 1    
    31   18   19 ar   
    32   19   31 1    
    33   19   20 ar   
@<TRIPOS>SUBSTRUCTURE
     1 UNL         1 GROUP             0       ****    0 ROOT    
@<TRIPOS>MOLECULE
EDJ-MED-50fe53e8-2
33   35    1
SMALL
USER_CHARGES


@<TRIPOS>ATOM
      1 O          -3.8728   -5.2584    0.0119 O.2       1 UNL        -0.2751 
      2 C          -4.1548   -4.0638    0.0223 C.2       1 UNL         0.2216 
      3 C          -5.5457   -3.5023    0.0401 C.3       1 UNL         0.0495 
      4 C          -6.2614   -3.9785    1.2693 C.ar      1 UNL        -0.0372 
      5 C          -7.5754   -3.5913    1.5145 C.ar      1 UNL        -0.0580 
      6 C          -8.2375   -4.0352    2.6569 C.ar      1 UNL        -0.0601 
      7 C          -7.5914   -4.8701    3.5642 C.ar      1 UNL        -0.0434 
      8 C          -6.2783   -5.2576    3.3199 C.ar      1 UNL         0.0412 
      9 Cl         -5.4654   -6.2924    4.4364 Cl        1 UNL        -0.0835 
     10 C          -5.6173   -4.8135    2.1779 C.ar      1 UNL        -0.0397 
     11 N          -3.2317   -3.1016    0.0188 N.am      1 UNL        -0.2834 
     12 C          -1.7872   -3.3127    0.0027 C.ar      1 UNL         0.0627 
     13 C          -1.2369   -4.5917   -0.0110 C.ar      1 UNL         0.0717 
     14 N           0.1021   -4.8110   -0.0261 N.ar      1 UNL        -0.1552 
     15 N           0.9611   -3.7786   -0.0285 N.ar      1 UNL        -0.1492 
     16 C           0.4980   -2.4946   -0.0157 C.ar      1 UNL         0.0951 
     17 C           1.4137   -1.4179   -0.0184 C.ar      1 UNL        -0.0339 
     18 C           0.9612   -0.1001   -0.0055 C.ar      1 UNL        -0.0597 
     19 C          -0.4016    0.1739    0.0102 C.ar      1 UNL        -0.0610 
     20 C          -1.3283   -0.8659    0.0132 C.ar      1 UNL        -0.0507 
     21 C          -0.8982   -2.2131    0.0004 C.ar      1 UNL         0.0248 
     22 H          -6.0840   -3.8372   -0.8465 H         1 UNL         0.0407 
     23 H          -5.4978   -2.4134    0.0464 H         1 UNL         0.0407 
     24 H          -8.0852   -2.9424    0.8144 H         1 UNL         0.0620 
     25 H          -9.2587   -3.7302    2.8411 H         1 UNL         0.0618 
     26 H          -8.1038   -5.2153    4.4509 H         1 UNL         0.0632 
     27 H          -4.5970   -5.1203    1.9973 H         1 UNL         0.0635 
     28 H          -3.4190   -2.1092    0.0269 H         1 UNL         0.1549 
     29 H          -1.8725   -5.4676   -0.0099 H         1 UNL         0.0867 
     30 H           2.4745   -1.6293   -0.0306 H         1 UNL         0.0639 
     31 H           1.6720    0.7162   -0.0077 H         1 UNL         0.0618 
     32 H          -0.7410    1.2018    0.0201 H         1 UNL         0.0618 
     33 H          -2.3881   -0.6480    0.0255 H         1 UNL         0.0625 
@<TRIPOS>BOND
     1    1    2 2    
     2    2   11 am   BACKBONE|DICT|INTERRES
     3    2    3 1    
     4    3   23 1    
     5    3    4 1    
     6    3   22 1    
     7    4    5 ar   
     8    4   10 ar   
     9    5   24 1    
    10    5    6 ar   
    11    6   25 1    
    12    6    7 ar   
    13    7    8 ar   
    14    7   26 1    
    15    8   10 ar   
    16    8    9 1    
    17   10   27 1    
    18   11   12 1    
    19   11   28 1    
    20   12   21 ar   
    21   12   13 ar   
    22   13   14 ar   
    23   13   29 1    
    24   14   15 ar   
    25   15   16 ar   
    26   16   17 ar   
    27   16   21 ar   
    28   17   30 1    
    29   17   18 ar   
    30   18   31 1    
    31   18   19 ar   
    32   19   32 1    
    33   19   20 ar   
    34   20   21 ar   
    35   20   33 1    
@<TRIPOS>SUBSTRUCTURE
     1 UNL         1 GROUP             0       ****    0 ROOT    
@<TRIPOS>MOLECULE
JIN-POS-6dc588a4-12
32   34    1
SMALL
USER_CHARGES


@<TRIPOS>ATOM
      1 O          -3.8727   -5.2583    0.0120 O.2       1 UNL        -0.2751 
      2 C          -4.1548   -4.0637    0.0223 C.2       1 UNL         0.2216 
      3 C          -5.5457   -3.5023    0.0401 C.3       1 UNL         0.0495 
      4 C          -6.2614   -3.9785    1.2693 C.ar      1 UNL        -0.0372 
      5 C          -7.5754   -3.5914    1.5145 C.ar      1 UNL        -0.0580 
      6 C          -8.2375   -4.0352    2.6569 C.ar      1 UNL        -0.0601 
      7 C          -7.5914   -4.8701    3.5642 C.ar      1 UNL        -0.0434 
      8 C          -6.2782   -5.2575    3.3199 C.ar      1 UNL         0.0412 
      9 Cl         -5.4654   -6.2923    4.4365 Cl        1 UNL        -0.0835 
     10 C          -5.6173   -4.8134    2.1780 C.ar      1 UNL        -0.0397 
     11 N          -3.2317   -3.1015    0.0188 N.am      1 UNL        -0.2835 
     12 C          -1.7872   -3.3125    0.0027 C.ar      1 UNL         0.0609 
     13 C          -1.2504   -4.6001   -0.0108 C.ar      1 UNL         0.0495 
     14 N           0.0819   -4.8574   -0.0261 N.ar      1 UNL        -0.2593 
     15 C           0.9643   -3.8227   -0.0287 C.ar      1 UNL         0.0515 
     16 C           0.5051   -2.5018   -0.0158 C.ar      1 UNL         0.0666 
     17 N           1.1569   -1.2837   -0.0149 N.pl3     1 UNL        -0.3594 
     18 C           0.2368   -0.2621    0.0009 C.ar      1 UNL         0.0028 
     19 C          -1.0349   -0.8024    0.0106 C.ar      1 UNL        -0.0348 
     20 C          -0.8946   -2.2285    0.0003 C.ar      1 UNL         0.0238 
     21 H          -6.0840   -3.8373   -0.8466 H         1 UNL         0.0407 
     22 H          -5.4979   -2.4134    0.0463 H         1 UNL         0.0407 
     23 H          -8.0852   -2.9425    0.8143 H         1 UNL         0.0620 
     24 H          -9.2588   -3.7303    2.8410 H         1 UNL         0.0618 
     25 H          -8.1038   -5.2153    4.4509 H         1 UNL         0.0632 
     26 H          -4.5969   -5.1202    1.9973 H         1 UNL         0.0635 
     27 H          -3.4190   -2.1091    0.0269 H         1 UNL         0.1549 
     28 H          -1.9089   -5.4611   -0.0094 H         1 UNL         0.0849 
     29 H           2.0205   -4.0596   -0.0410 H         1 UNL         0.0851 
     30 H           2.1605   -1.1191   -0.0241 H         1 UNL         0.1654 
     31 H           0.5674    0.7708    0.0040 H         1 UNL         0.0807 
     32 H          -1.9544   -0.2336    0.0236 H         1 UNL         0.0639 
@<TRIPOS>BOND
     1    1    2 2    
     2    2   11 am   BACKBONE|DICT|INTERRES
     3    2    3 1    
     4    3   22 1    
     5    3    4 1    
     6    3   21 1    
     7    4    5 ar   
     8    4   10 ar   
     9    5   23 1    
    10    5    6 ar   
    11    6   24 1    
    12    6    7 ar   
    13    7    8 ar   
    14    7   25 1    
    15    8   10 ar   
    16    8    9 1    
    17   10   26 1    
    18   11   12 1    
    19   11   27 1    
    20   12   20 ar   
    21   12   13 ar   
    22   13   14 ar   
    23   13   28 1    
    24   14   15 ar   
    25   15   29 1    
    26   15   16 ar   
    27   16   17 ar   
    28   16   20 ar   
    29   17   30 1    
    30   17   18 ar   
    31   18   31 1    
    32   18   19 ar   
    33   19   20 ar   
    34   19   32 1    
@<TRIPOS>SUBSTRUCTURE
     1 UNL         1 GROUP             0       ****    0 ROOT    
@<TRIPOS>MOLECULE
MAT-POS-bb423b95-2
33   35    1
SMALL
USER_CHARGES


@<TRIPOS>ATOM
      1 O          -3.8727   -5.2583    0.0120 O.2       1 UNL        -0.2751 
      2 C          -4.1548   -4.0637    0.0223 C.2       1 UNL         0.2216 
      3 C          -5.5457   -3.5023    0.0401 C.3       1 UNL         0.0495 
      4 C          -6.2614   -3.9785    1.2693 C.ar      1 UNL        -0.0372 
      5 C          -7.5754   -3.5914    1.5145 C.ar      1 UNL        -0.0580 
      6 C          -8.2375   -4.0352    2.6569 C.ar      1 UNL        -0.0601 
      7 C          -7.5914   -4.8701    3.5642 C.ar      1 UNL        -0.0434 
      8 C          -6.2782   -5.2575    3.3199 C.ar      1 UNL         0.0412 
      9 Cl         -5.4654   -6.2923    4.4365 Cl        1 UNL        -0.0835 
     10 C          -5.6173   -4.8134    2.1780 C.ar      1 UNL        -0.0397 
     11 N          -3.2317   -3.1015    0.0188 N.am      1 UNL        -0.2823 
     12 C          -1.7872   -3.3125    0.0027 C.ar      1 UNL         0.0779 
     13 C          -1.2431   -4.5967   -0.0109 C.ar      1 UNL         0.0509 
     14 N           0.0926   -4.8379   -0.0261 N.ar      1 UNL        -0.2607 
     15 C           0.9297   -3.7699   -0.0280 C.ar      1 UNL         0.0368 
     16 C           0.4945   -2.4258   -0.0152 C.ar      1 UNL         0.0203 
     17 C           1.3587   -1.3030   -0.0171 C.ar      1 UNL        -0.0496 
     18 C           0.7978   -0.0260   -0.0034 C.ar      1 UNL        -0.0430 
     19 C          -0.5886    0.1134    0.0117 C.ar      1 UNL         0.0283 
     20 N          -1.4446   -0.9426    0.0139 N.ar      1 UNL        -0.2530 
     21 C          -0.9149   -2.1998    0.0007 C.ar      1 UNL         0.0950 
     22 H          -6.0840   -3.8373   -0.8466 H         1 UNL         0.0407 
     23 H          -5.4979   -2.4134    0.0463 H         1 UNL         0.0407 
     24 H          -8.0852   -2.9425    0.8143 H         1 UNL         0.0620 
     25 H          -9.2588   -3.7303    2.8410 H         1 UNL         0.0618 
     26 H          -8.1038   -5.2153    4.4509 H         1 UNL         0.0632 
     27 H          -4.5969   -5.1202    1.9973 H         1 UNL         0.0635 
     28 H          -3.4190   -2.1091    0.0269 H         1 UNL         0.1549 
     29 H          -1.8946   -5.4630   -0.0096 H         1 UNL         0.0849 
     30 H           1.9918   -3.9810   -0.0402 H         1 UNL         0.0836 
     31 H           2.4317   -1.4432   -0.0289 H         1 UNL         0.0625 
     32 H           1.4295    0.8520   -0.0044 H         1 UNL         0.0633 
     33 H          -1.0326    1.1023    0.0224 H         1 UNL         0.0830 
@<TRIPOS>BOND
     1    1    2 2    
     2    2   11 am   BACKBONE|DICT|INTERRES
     3    2    3 1    
     4    3   23 1    
     5    3    4 1    
     6    3   22 1    
     7    4    5 ar   
     8    4   10 ar   
     9    5   24 1    
    10    5    6 ar   
    11    6   25 1    
    12    6    7 ar   
    13    7    8 ar   
    14    7   26 1    
    15    8   10 ar   
    16    8    9 1    
    17   10   27 1    
    18   11   12 1    
    19   11   28 1    
    20   12   21 ar   
    21   12   13 ar   
    22   13   14 ar   
    23   13   29 1    
    24   14   15 ar   
    25   15   30 1    
    26   15   16 ar   
    27   16   17 ar   
    28   16   21 ar   
    29   17   31 1    
    30   17   18 ar   
    31   18   32 1    
    32   18   19 ar   
    33   19   33 1    
    34   19   20 ar   
    35   20   21 ar   
@<TRIPOS>SUBSTRUCTURE
     1 UNL         1 GROUP             0       ****    0 ROOT    
@<TRIPOS>MOLECULE
MAT-POS-bb423b95-1
33   35    1
SMALL
USER_CHARGES


@<TRIPOS>ATOM
      1 O          -3.8727   -5.2583    0.0120 O.2       1 UNL        -0.2751 
      2 C          -4.1548   -4.0637    0.0223 C.2       1 UNL         0.2216 
      3 C          -5.5457   -3.5023    0.0401 C.3       1 UNL         0.0495 
      4 C          -6.2614   -3.9785    1.2693 C.ar      1 UNL        -0.0372 
      5 C          -7.5754   -3.5913    1.5145 C.ar      1 UNL        -0.0580 
      6 C          -8.2375   -4.0352    2.6569 C.ar      1 UNL        -0.0601 
      7 C          -7.5914   -4.8701    3.5642 C.ar      1 UNL        -0.0434 
      8 C          -6.2782   -5.2575    3.3199 C.ar      1 UNL         0.0412 
      9 Cl         -5.4654   -6.2923    4.4365 Cl        1 UNL        -0.0835 
     10 C          -5.6173   -4.8134    2.1780 C.ar      1 UNL        -0.0397 
     11 N          -3.2317   -3.1015    0.0188 N.am      1 UNL        -0.2835 
     12 C          -1.7872   -3.3125    0.0027 C.ar      1 UNL         0.0596 
     13 C          -1.2519   -4.6011   -0.0108 C.ar      1 UNL         0.0494 
     14 N           0.0821   -4.8524   -0.0260 N.ar      1 UNL        -0.2608 
     15 C           0.9265   -3.7900   -0.0281 C.ar      1 UNL         0.0368 
     16 C           0.4975   -2.4438   -0.0153 C.ar      1 UNL         0.0201 
     17 C           1.3534   -1.3195   -0.0171 C.ar      1 UNL         0.0368 
     18 N           0.9145   -0.0354   -0.0046 N.ar      1 UNL        -0.2626 
     19 C          -0.4264    0.1754    0.0105 C.ar      1 UNL         0.0282 
     20 C          -1.3631   -0.8588    0.0136 C.ar      1 UNL        -0.0340 
     21 C          -0.9071   -2.2011    0.0006 C.ar      1 UNL         0.0091 
     22 H          -6.0840   -3.8373   -0.8465 H         1 UNL         0.0407 
     23 H          -5.4979   -2.4134    0.0463 H         1 UNL         0.0407 
     24 H          -8.0852   -2.9425    0.8143 H         1 UNL         0.0620 
     25 H          -9.2588   -3.7303    2.8410 H         1 UNL         0.0618 
     26 H          -8.1038   -5.2153    4.4509 H         1 UNL         0.0632 
     27 H          -4.5969   -5.1202    1.9973 H         1 UNL         0.0635 
     28 H          -3.4190   -2.1091    0.0269 H         1 UNL         0.1549 
     29 H          -1.9093   -5.4630   -0.0094 H         1 UNL         0.0849 
     30 H           1.9871   -4.0086   -0.0403 H         1 UNL         0.0836 
     31 H           2.4259   -1.4694   -0.0290 H         1 UNL         0.0836 
     32 H          -0.7565    1.2079    0.0203 H         1 UNL         0.0830 
     33 H          -2.4229   -0.6472    0.0258 H         1 UNL         0.0639 
@<TRIPOS>BOND
     1    1    2 2    
     2    2   11 am   BACKBONE|DICT|INTERRES
     3    2    3 1    
     4    3   23 1    
     5    3    4 1    
     6    3   22 1    
     7    4    5 ar   
     8    4   10 ar   
     9    5   24 1    
    10    5    6 ar   
    11    6   25 1    
    12    6    7 ar   
    13    7    8 ar   
    14    7   26 1    
    15    8   10 ar   
    16    8    9 1    
    17   10   27 1    
    18   11   12 1    
    19   11   28 1    
    20   12   21 ar   
    21   12   13 ar   
    22   13   14 ar   
    23   13   29 1    
    24   14   15 ar   
    25   15   30 1    
    26   15   16 ar   
    27   16   17 ar   
    28   16   21 ar   
    29   17   31 1    
    30   17   18 ar   
    31   18   19 ar   
    32   19   32 1    
    33   19   20 ar   
    34   20   21 ar   
    35   20   33 1    
@<TRIPOS>SUBSTRUCTURE
     1 UNL         1 GROUP             0       ****    0 ROOT    
@<TRIPOS>MOLECULE
PET-UNK-8df914d1-2
32   34    1
SMALL
USER_CHARGES


@<TRIPOS>ATOM
      1 O          -3.8727   -5.2583    0.0120 O.2       1 UNL        -0.2751 
      2 C          -4.1548   -4.0637    0.0223 C.2       1 UNL         0.2226 
      3 C          -5.5457   -3.5023    0.0401 C.3       1 UNL         0.0495 
      4 C          -6.2614   -3.9785    1.2693 C.ar      1 UNL        -0.0372 
      5 C          -7.5754   -3.5914    1.5145 C.ar      1 UNL        -0.0580 
      6 C          -8.2375   -4.0352    2.6569 C.ar      1 UNL        -0.0601 
      7 C          -7.5914   -4.8701    3.5642 C.ar      1 UNL        -0.0434 
      8 C          -6.2782   -5.2575    3.3199 C.ar      1 UNL         0.0412 
      9 Cl         -5.4654   -6.2923    4.4365 Cl        1 UNL        -0.0835 
     10 C          -5.6173   -4.8134    2.1780 C.ar      1 UNL        -0.0397 
     11 N          -3.2317   -3.1015    0.0188 N.am      1 UNL        -0.2699 
     12 C          -1.7872   -3.3125    0.0027 C.ar      1 UNL         0.1292 
     13 C          -1.0230   -4.4776   -0.0124 C.ar      1 UNL         0.0686 
     14 N           0.2761   -4.2466   -0.0243 N.2       1 UNL        -0.2342 
     15 C           0.3824   -2.8875   -0.0169 C.ar      1 UNL         0.1389 
     16 C           1.5207   -2.0611   -0.0234 C.ar      1 UNL        -0.0188 
     17 C           1.3521   -0.6714   -0.0131 C.ar      1 UNL        -0.0569 
     18 C           0.0804   -0.0991    0.0035 C.ar      1 UNL        -0.0450 
     19 C          -1.0495   -0.9159    0.0100 C.ar      1 UNL         0.0129 
     20 N          -0.8879   -2.2773   -0.0001 N.pl3     1 UNL        -0.2877 
     21 H          -6.0840   -3.8373   -0.8466 H         1 UNL         0.0407 
     22 H          -5.4979   -2.4134    0.0463 H         1 UNL         0.0407 
     23 H          -8.0852   -2.9425    0.8143 H         1 UNL         0.0620 
     24 H          -9.2588   -3.7303    2.8410 H         1 UNL         0.0618 
     25 H          -8.1038   -5.2153    4.4509 H         1 UNL         0.0632 
     26 H          -4.5969   -5.1202    1.9973 H         1 UNL         0.0635 
     27 H          -3.4190   -2.1091    0.0269 H         1 UNL         0.1562 
     28 H          -1.4217   -5.4872   -0.0146 H         1 UNL         0.0865 
     29 H           2.5092   -2.4968   -0.0363 H         1 UNL         0.0654 
     30 H           2.2227   -0.0271   -0.0180 H         1 UNL         0.0619 
     31 H          -0.0261    0.9790    0.0113 H         1 UNL         0.0632 
     32 H          -2.0642   -0.5437    0.0228 H         1 UNL         0.0814 
@<TRIPOS>BOND
     1    1    2 2    
     2    2   11 am   BACKBONE|DICT|INTERRES
     3    2    3 1    
     4    3   22 1    
     5    3    4 1    
     6    3   21 1    
     7    4    5 ar   
     8    4   10 ar   
     9    5   23 1    
    10    5    6 ar   
    11    6   24 1    
    12    6    7 ar   
    13    7    8 ar   
    14    7   25 1    
    15    8   10 ar   
    16    8    9 1    
    17   10   26 1    
    18   11   12 1    
    19   11   27 1    
    20   12   20 ar   
    21   12   13 ar   
    22   13   14 ar   
    23   13   28 1    
    24   14   15 ar   
    25   15   16 ar   
    26   15   20 ar   
    27   16   29 1    
    28   16   17 ar   
    29   17   30 1    
    30   17   18 ar   
    31   18   31 1    
    32   18   19 ar   
    33   19   20 ar   
    34   19   32 1    
@<TRIPOS>SUBSTRUCTURE
     1 UNL         1 GROUP             0       ****    0 ROOT    
@<TRIPOS>MOLECULE
JIN-POS-6dc588a4-22
31   33    1
SMALL
USER_CHARGES


@<TRIPOS>ATOM
      1 O          -3.8727   -5.2583    0.0120 O.2       1 UNL        -0.2751 
      2 C          -4.1548   -4.0637    0.0223 C.2       1 UNL         0.2216 
      3 C          -5.5457   -3.5023    0.0401 C.3       1 UNL         0.0495 
      4 C          -6.2614   -3.9785    1.2693 C.ar      1 UNL        -0.0372 
      5 C          -7.5754   -3.5914    1.5145 C.ar      1 UNL        -0.0580 
      6 C          -8.2375   -4.0352    2.6569 C.ar      1 UNL        -0.0601 
      7 C          -7.5914   -4.8701    3.5642 C.ar      1 UNL        -0.0434 
      8 C          -6.2782   -5.2575    3.3199 C.ar      1 UNL         0.0412 
      9 Cl         -5.4654   -6.2923    4.4365 Cl        1 UNL        -0.0835 
     10 C          -5.6173   -4.8134    2.1780 C.ar      1 UNL        -0.0397 
     11 N          -3.2317   -3.1015    0.0188 N.am      1 UNL        -0.2835 
     12 C          -1.7872   -3.3125    0.0027 C.ar      1 UNL         0.0600 
     13 C          -1.2607   -4.6043   -0.0107 C.ar      1 UNL         0.0494 
     14 N           0.0685   -4.8711   -0.0260 N.ar      1 UNL        -0.2603 
     15 C           0.9449   -3.8343   -0.0285 C.ar      1 UNL         0.0420 
     16 C           0.5024   -2.5048   -0.0157 C.ar      1 UNL         0.0392 
     17 S           1.4646   -1.0339   -0.0165 S.3       1 UNL        -0.0951 
     18 C           0.0053   -0.0742    0.0045 C.2       1 UNL        -0.0231 
     19 C          -1.1529   -0.8250    0.0117 C.2       1 UNL        -0.0451 
     20 C          -0.8960   -2.2245    0.0003 C.ar      1 UNL         0.0133 
     21 H          -6.0840   -3.8373   -0.8465 H         1 UNL         0.0407 
     22 H          -5.4979   -2.4134    0.0463 H         1 UNL         0.0407 
     23 H          -8.0852   -2.9425    0.8143 H         1 UNL         0.0620 
     24 H          -9.2588   -3.7303    2.8410 H         1 UNL         0.0618 
     25 H          -8.1038   -5.2153    4.4509 H         1 UNL         0.0632 
     26 H          -4.5969   -5.1202    1.9973 H         1 UNL         0.0635 
     27 H          -3.4190   -2.1091    0.0269 H         1 UNL         0.1549 
     28 H          -1.9257   -5.4604   -0.0092 H         1 UNL         0.0849 
     29 H           2.0016   -4.0702   -0.0408 H         1 UNL         0.0841 
     30 H           0.0812    1.0054    0.0104 H         1 UNL         0.0694 
     31 H          -2.1470   -0.4000    0.0245 H         1 UNL         0.0629 
@<TRIPOS>BOND
     1    1    2 2    
     2    2   11 am   BACKBONE|DICT|INTERRES
     3    2    3 1    
     4    3   22 1    
     5    3    4 1    
     6    3   21 1    
     7    4    5 ar   
     8    4   10 ar   
     9    5   23 1    
    10    5    6 ar   
    11    6   24 1    
    12    6    7 ar   
    13    7    8 ar   
    14    7   25 1    
    15    8   10 ar   
    16    8    9 1    
    17   10   26 1    
    18   11   12 1    
    19   11   27 1    
    20   12   20 ar   
    21   12   13 ar   
    22   13   14 ar   
    23   13   28 1    
    24   14   15 ar   
    25   15   29 1    
    26   15   16 ar   
    27   16   17 1    
    28   16   20 ar   
    29   17   18 1    
    30   18   30 1    
    31   18   19 2    
    32   19   20 1    
    33   19   31 1    
@<TRIPOS>SUBSTRUCTURE
     1 UNL         1 GROUP             0       ****    0 ROOT    
